data_Ca10_(_Si_O4_)3_(_S_O4_)3_F2_-_00-045-0009
#Copyright 2025 International Centre for Diffraction Data. All rights reserved.

_audit_creation_date                  2025-05-02
_audit_creation_method                'Generated by PDF-4+ 2020 4.20.0.1'

_chemical_name_systematic             'Calcium Fluoride Silicate Sulfate'
_chemical_formula_moiety              'Ca10 ( Si O4 )3 ( S O4 )3 F2'
_chemical_formula_sum                 'Ca10 F2 O24 S3 Si3'
_chemical_formula_weight              1003.22

_cell_length_a                        9.44174(9)
_cell_length_b                        9.44174(9)
_cell_length_c                        6.93964(8)
_cell_angle_alpha                     90
_cell_angle_beta                      90
_cell_angle_gamma                     120
_cell_volume                          535.73
_cell_formula_units_Z                 1.00
_symmetry_cell_setting                hexagonal
_symmetry_space_group_name_H-M        P63/m
_symmetry_Int_Tables_number           176

loop_
_symmetry_equiv_pos_site_id
_symmetry_equiv_pos_as_xyz
1 x,y,z
2 -x,-y,-z
3 -y,x-y,z
4 y,-x+y,-z
5 -x+y,-x,z
6 x-y,x,-z
7 -x,-y,z+1/2
8 x,y,-z+1/2
9 y,-x+y,z+1/2
10 -y,x-y,-z+1/2
11 x-y,x,z+1/2
12 -x+y,-x,-z+1/2

loop_
_atom_site_label
_atom_site_type_symbol
_atom_site_fract_x
_atom_site_fract_y
_atom_site_fract_z
_atom_site_U_iso_or_equiv
_atom_site_symmetry_multiplicity
_atom_site_Wyckoff_symbol
_atom_site_occupancy
O1 O 0.3234 0.4846 0.25 0.014 6 h 1.0
O2 O 0.5865 0.4683 0.25 0.018 6 h 1.0
O3 O 0.3385 0.2568 0.0709 0.022 12 i 1.0
S4 S 0.3961 0.3684 0.25 0.012 6 h 0.5
Si5 Si 0.3961 0.3684 0.25 0.012 6 h 0.5
Ca6 Ca 0.33333 0.66666 0.0016 0.031 4 f 1.0
Ca7 Ca 0.2399 0.992 0.25 0.022 6 h 1.0
F8 F 0.0 0.0 0.25 0.026 2 a 1.0

