data_global
_chemical_name_mineral 'Albite'
_symmetry_space_group_name_H-M p-1
_cell_length_a 8.14500045776367
_cell_length_b 12.78600025177
_cell_length_c 7.15000009536743
_cell_angle_alpha 94.2799987792969
_cell_angle_beta 116.599998474121
_cell_angle_gamma 87.6600036621094
_cell_volume 663.921103756433
loop_
_atom_site_label
_atom_site_type_symbol
_atom_site_Wyckoff_symbol
_atom_site_fract_x
_atom_site_fract_y
_atom_site_fract_z
_atom_site_occupancy
_atom_site_B_iso_or_equiv
s1 NA1+ a 0.2675 0.9802 0.151 0.45 6
s2 NA1+ a 0.2653 0 0.1385 0.55 6
s3 SI4+ a 0.0095 0.168 0.2075 0.09 0.2
s4 AL3+ a 0.0095 0.168 0.2075 0.91 0.2
s5 SI4+ a 0.0053 0.8207 0.238 0.95 0.2
s6 AL3+ a 0.0053 0.8207 0.238 0.05 0.2
s7 SI4+ a 0.691 0.11 0.3105 0.91 0.2
s8 AL3+ a 0.691 0.11 0.3105 0.09 0.2
s9 SI4+ a 0.6797 0.8818 0.3595 0.96 0.2
s10 AL3+ a 0.6797 0.8818 0.3595 0.04 0.2
s11 O2- a 0.0065 0.1283 0.9678 1 0.15
s12 O2- a 0.5905 0.9962 0.2785 1 0.15
s13 O2- a 0.8169 0.107 0.1943 1 0.35
s14 O2- a 0.8191 0.8525 0.2612 1 0.35
s15 O2- a 0.0095 0.3011 0.268 1 0.35
s16 O2- a 0.0247 0.6936 0.2295 1 0.15
s17 O2- a 0.2085 0.1087 0.3885 1 0.15
s18 O2- a 0.1844 0.8674 0.4345 1 0.15
