data_global
_chemical_name_mineral 'Anorthite'
_symmetry_space_group_name_H-M p-1
_cell_length_a 8.18000030517578
_cell_length_b 12.8800001144409
_cell_length_c 14.1700000762939
_cell_angle_alpha 93.1999969482422
_cell_angle_beta 115.800003051758
_cell_angle_gamma 91.1999969482422
_cell_volume 1340.31537616501
loop_
_atom_site_label
_atom_site_type_symbol
_atom_site_Wyckoff_symbol
_atom_site_fract_x
_atom_site_fract_y
_atom_site_fract_z
_atom_site_occupancy
_atom_site_B_iso_or_equiv
s1 CA2+ i 0.2647 0.9844 0.0873 1 1
s2 CA2+ i 0.2684 0.0312 0.5438 1 1
s3 CA2+ i 0.7732 0.5334 0.5422 1 1
s4 CA2+ i 0.7636 0.5067 0.074 1 1
s5 SI4+ i 0.0099 0.1584 0.1043 1 0.2
s6 AL3+ i 0.0069 0.1609 0.6125 1 0.2
s7 SI4+ i 0.5061 0.6567 0.6033 1 0.2
s8 AL3+ i 0.4987 0.6675 0.1125 1 0.2
s9 AL3+ i 0.9928 0.8146 0.119 1 0.2
s10 SI4+ i 0.0059 0.8154 0.6129 1 0.2
s11 AL3+ i 0.5078 0.3154 0.6212 1 0.2
s12 SI4+ i 0.5034 0.3207 0.1091 1 0.2
s13 AL3+ i 0.6841 0.1134 0.1512 1 0.2
s14 SI4+ i 0.6818 0.1029 0.6644 1 0.2
s15 AL3+ i 0.1906 0.6123 0.6681 1 0.2
s16 SI4+ i 0.1714 0.6062 0.1504 1 0.2
s17 SI4+ i 0.6749 0.8828 0.1881 1 0.2
s18 AL3+ i 0.6799 0.8717 0.6715 1 0.2
s19 SI4+ i 0.1759 0.3802 0.6744 1 0.2
s20 AL3+ i 0.1865 0.379 0.1815 1 0.2
s21 O i 0.0276 0.1234 0.9957 1 0.6
s22 O i 0.9814 0.1237 0.4808 1 0.6
s23 O i 0.4873 0.6256 0.4865 1 0.6
s24 O i 0.5129 0.6256 0.997 1 0.6
s25 O i 0.5724 0.9909 0.1451 1 0.6
s26 O i 0.5732 0.9901 0.6398 1 0.6
s27 O i 0.0732 0.4876 0.633 1 0.6
s28 O i 0.0755 0.4925 0.1363 1 0.6
s29 O i 0.8114 0.1027 0.0792 1 0.6
s30 O i 0.8071 0.0996 0.6046 1 0.6
s31 O i 0.3363 0.5938 0.6045 1 0.6
s32 O i 0.2912 0.6036 0.0819 1 0.6
s33 O i 0.8148 0.8516 0.1454 1 0.6
s34 O i 0.809 0.851 0.6018 1 0.6
s35 O i 0.2983 0.3575 0.6113 1 0.6
s36 O i 0.3382 0.3606 0.1309 1 0.6
s37 O i 0.012 0.278 0.1351 1 0.6
s38 O i 0.0177 0.29 0.6486 1 0.6
s39 O i 0.5082 0.7778 0.6311 1 0.6
s40 O i 0.5102 0.7969 0.15 1 0.6
s41 O i 0.0004 0.6802 0.1063 1 0.6
s42 O i 0.0083 0.6898 0.6017 1 0.6
s43 O i 0.515 0.1794 0.609 1 0.6
s44 O i 0.5067 0.1947 0.0974 1 0.6
s45 O i 0.1795 0.1072 0.1919 1 0.6
s46 O i 0.2153 0.1057 0.6862 1 0.6
s47 O i 0.6992 0.6031 0.6779 1 0.6
s48 O i 0.6921 0.6014 0.2 1 0.6
s49 O i 0.2027 0.8723 0.2106 1 0.6
s50 O i 0.1754 0.8557 0.717 1 0.6
s51 O i 0.6861 0.3637 0.7335 1 0.6
s52 O i 0.6999 0.3691 0.1993 1 0.6
