data_global
_chemical_name_mineral 'Arcanite K2SO4'
_symmetry_space_group_name_H-M pnma
_cell_length_a 7.47700023651123
_cell_length_b 5.76200008392334
_cell_length_c 10.0699996948242
_cell_angle_alpha 90     
_cell_angle_beta 90     
_cell_angle_gamma 90     
_cell_volume 433.840520074316
loop_
_atom_site_label
_atom_site_type_symbol
_atom_site_Wyckoff_symbol
_atom_site_fract_x
_atom_site_fract_y
_atom_site_fract_z
_atom_site_occupancy
_atom_site_B_iso_or_equiv
s1 S c 0.733 0.25 0.9197 1 1.17
s2 K1+ c 0.1738 0.25 0.9106 1 1.81
s3 K1+ c 0.489 0.25 0.2041 1 1.63
s4 O2- c 0.5379 0.25 0.9166 1 2.26
s5 O2- c 0.7963 0.25 0.0582 1 1.96
s6 O2- d 0.3009 0.0412 0.6478 1 2.23
