data_global
_chemical_name_mineral 'Bassanite'
_symmetry_space_group_name_H-M c121
_cell_length_a 17.431999206543
_cell_length_b 6.92999982833862
_cell_length_c 12.0200004577637
_cell_angle_alpha 90     
_cell_angle_beta 133.384002685547
_cell_angle_gamma 90     
_cell_volume 1055.30937173206
loop_
_atom_site_label
_atom_site_type_symbol
_atom_site_Wyckoff_symbol
_atom_site_fract_x
_atom_site_fract_y
_atom_site_fract_z
_atom_site_occupancy
_atom_site_B_iso_or_equiv
s1 S c 0.2615 0.1239 0.2591 1 0.89
s2 S c 0.416 0.2821 0.1338 1 0.94
s3 S c 0.0769 0.2935 0.3435 1 0.89
s4 CA2+ b 0 0.6191 0.5 1 0.45
s5 CA2+ c 0.1783 0.2817 0.9021 1 0.31
s6 CA2+ c 0.3291 0.3246 0.5969 1 0.14
s7 CA2+ a 0 0.1397 0 1 0.15
s8 O2- c 0.3208 0.2767 0.3809 1 1.48
s9 O2- c 0.1863 0.0144 0.2478 1 1.65
s10 O2- c 0.1894 0.2283 0.1085 1 1.4
s11 O2- c 0.3102 0.9679 0.2375 1 1.54
s12 O2- c 0.3353 0.4321 0.0757 1 1.4
s13 O2- c 0.4907 0.3644 0.1248 1 1.33
s14 O2- c 0.4884 0.2615 0.3019 1 1.31
s15 O2- c 0.3628 0.0927 0.0624 1 1.4
s16 O2- c 0.1541 0.4472 0.3923 1 1.71
s17 O2- c 0.0126 0.3383 0.3804 1 1.03
s18 O2- c 0.9967 0.2122 0.1877 1 1.13
s19 O2- c 0.154 0.1441 0.4569 1 1.2
s20 O2- c 0.6579 0.5988 0.7178 1 1.03
s21 O2- a 0 0.4555 0 1 1.67
s22 H c 0.962 0.5552 0.0142 1 4.59
s23 H c 0.6914 0.6035 0.6571 1 5.46
s24 H c 0.7139 0.4869 0.7977 1 5.48
