data_global
_chemical_name_mineral 'Bassanite Bezou'
_symmetry_space_group_name_H-M c121
_cell_length_a 12.0191698074341
_cell_length_b 6.93028020858765
_cell_length_c 12.6697196960449
_cell_angle_alpha 90     
_cell_angle_beta 90.2350006103516
_cell_angle_gamma 90     
_cell_volume 1055.33081447378
loop_
_atom_site_label
_atom_site_type_symbol
_atom_site_Wyckoff_symbol
_atom_site_fract_x
_atom_site_fract_y
_atom_site_fract_z
_atom_site_occupancy
_atom_site_B_iso_or_equiv
s1 S c 0.9976 0.1239 0.7385 1 1
s2 S c 0.7178 0.2821 0.584 1 1
s3 S c 0.2666 0.2935 0.9231 1 1
s4 Ca2+ b 0.5 0.6191 0 1 1
s5 Ca2+ c 0.7238 0.2817 0.8217 1 1
s6 Ca2+ c 0.2678 0.3246 0.6709 1 1
s7 Ca2+ a 0 0.1397 0 1 1
s8 O2- c 0.0601 0.2767 0.6792 1 1
s9 O2- c 0.0615 0.0144 0.8137 1 1
s10 O2- c 0.9191 0.2283 0.8106 1 1
s11 O2- c 0.9273 0.9679 0.6898 1 1
s12 O2- c 0.7404 0.4321 0.6647 1 1
s13 O2- c 0.6341 0.3644 0.5093 1 1
s14 O2- c 0.8135 0.2615 0.5116 1 1
s15 O2- c 0.6996 0.0927 0.6372 1 1
s16 O2- c 0.2382 0.4472 0.8459 1 1
s17 O2- c 0.3678 0.3383 0.9874 1 1
s18 O2- c 0.191 0.2122 0.0033 1 1
s19 O2- c 0.3029 0.1441 0.846 1 1
s20 O2- c 0.0599 0.5988 0.3421 1 1
s21 O2- a 0 0.4555 0 1 1
s22 H c 0.0522 0.5552 0.038 1 1
s23 H c 0.9657 0.6035 0.3086 1 1
s24 H c 0.0838 0.4869 0.2861 1 1
