data_global
_chemical_name_mineral 'Bassanite Abriel trigonal'
_symmetry_space_group_name_H-M p3121
_cell_length_a 6.93699979782104
_cell_length_b 6.93699979782104
_cell_length_c 10     
_cell_angle_alpha 90     
_cell_angle_beta 90     
_cell_angle_gamma 120    
_cell_volume 416.748452048993
loop_
_atom_site_label
_atom_site_type_symbol
_atom_site_Wyckoff_symbol
_atom_site_fract_x
_atom_site_fract_y
_atom_site_fract_z
_atom_site_occupancy
_atom_site_B_iso_or_equiv
s1 Ca2+ c 0.5447 0 0.416666666666667 1 1
s2 S a 0.5504 0 0.333333333333333 1 1
s3 O2- c 0.5969 0.855 0.4653 1 1
s4 O2- c 0.3647 0.8722 0.1889 1 1
s5 O2- c 0.9015 0 0.416666666666667 0.5 1
s6 H a 0 0 0.333333333333333 0.5 1
