data_global
_chemical_name_mineral 'Bayerite'
_symmetry_space_group_name_H-M p121/c1
_cell_length_a 5.05999994277954
_cell_length_b 8.67099952697754
_cell_length_c 4.71299982070923
_cell_angle_alpha 90     
_cell_angle_beta 90.3000030517578
_cell_angle_gamma 90     
_cell_volume 206.781244291982
loop_
_atom_site_label
_atom_site_type_symbol
_atom_site_Wyckoff_symbol
_atom_site_fract_x
_atom_site_fract_y
_atom_site_fract_z
_atom_site_occupancy
_atom_site_B_iso_or_equiv
s1 AL3+ e 0.527 0.167 0.985 1 1.3
s2 O2- e 0.365 0.989 0.215 1 0.5
s3 O2- e 0.204 0.176 0.777 1 0.5
s4 O2- e 0.344 0.308 0.229 1 0.5
