data_global
_chemical_name_mineral 'Boehmite'
_symmetry_space_group_name_H-M cmcm
_cell_length_a 2.87400007247925
_cell_length_b 12.2349996566772
_cell_length_c 3.70000004768372
_cell_angle_alpha 90     
_cell_angle_beta 90     
_cell_angle_gamma 90     
_cell_volume 130.104544306995
loop_
_atom_site_label
_atom_site_type_symbol
_atom_site_Wyckoff_symbol
_atom_site_fract_x
_atom_site_fract_y
_atom_site_fract_z
_atom_site_occupancy
_atom_site_B_iso_or_equiv
s1 AL3+ c 0 0.6835 0.25 1 0.43
s2 O2- c 0 0.2891 0.25 1 0.64
s3 O2- c 0 0.0775 0.25 1 0.65
