data_global
_chemical_name_mineral 'Brucite'
_symmetry_space_group_name_H-M p-3m1
_cell_length_a 3.15000009536743
_cell_length_b 3.15000009536743
_cell_length_c 10     
_cell_angle_alpha 90     
_cell_angle_beta 90     
_cell_angle_gamma 120    
_cell_volume 85.93137589372
loop_
_atom_site_label
_atom_site_type_symbol
_atom_site_Wyckoff_symbol
_atom_site_fract_x
_atom_site_fract_y
_atom_site_fract_z
_atom_site_occupancy
_atom_site_B_iso_or_equiv
s1 MG2+ a 0 0 0 1 0.43
s2 O2- d 0.333333333333333 0.666666666666667 0.2203 1 1
s3 H d 0.333333333333333 0.666666666666667 0.413 1 1
