data_global
_chemical_name_mineral 'C2F'
_symmetry_space_group_name_H-M pnma
_cell_length_a 5.42399978637695
_cell_length_b 14.7700004577637
_cell_length_c 5.59700012207031
_cell_angle_alpha 90     
_cell_angle_beta 90     
_cell_angle_gamma 90     
_cell_volume 448.389556576479
loop_
_atom_site_label
_atom_site_type_symbol
_atom_site_Wyckoff_symbol
_atom_site_fract_x
_atom_site_fract_y
_atom_site_fract_z
_atom_site_occupancy
_atom_site_B_iso_or_equiv
s1 CA2+ d 0.4817 0.108 0.0231 1 0.62
s2 FE3+ a 0 0 0 1 0.4
s3 FE3+ c 0.4459 0.25 0.5659 1 0.4
s4 O2- d 0.2623 0.9846 0.2377 1 0.57
s5 O2- d 0.0224 0.1406 0.0715 1 0.79
s6 O2- c 0.0981 0.25 0.6243 1 0.56
