data_global
_chemical_name_mineral 'C2S alphaï¿½l (Mumme)'
_symmetry_space_group_name_H-M pna21
_cell_length_a 20.5265998840332
_cell_length_b 9.49629974365234
_cell_length_c 5.58970022201538
_cell_angle_alpha 90     
_cell_angle_beta 90     
_cell_angle_gamma 90     
_cell_volume 1089.58207101508
loop_
_atom_site_label
_atom_site_type_symbol
_atom_site_fract_x
_atom_site_fract_y
_atom_site_fract_z
_atom_site_occupancy
_atom_site_B_iso_or_equiv
s1 Ca2+ 0.7787 0.0726 0.7465 1 1.2
s2 Ca2+ 0.4417 0.0469 0.8011 1 3.5
s3 Ca2+ 0.1225 0.0794 0.7025 1 4.5
s4 Ca2+ 0.9958 0.8137 0.7228 1 4.5
s5 Ca2+ 0.6627 0.7836 0.7652 1 3.5
s6 Ca2+ 0.3275 0.8001 0.7453 1 1.8
s7 Si4+ 0.2607 0.068 0.7592 1 3.9
s8 Si4+ 0.9284 0.0805 0.7557 1 2.1
s9 Si4+ 0.5896 0.0959 0.7269 1 4.9
s10 O2- 0.7585 0.8504 0.4906 1 4.4
s11 O2- 0.7716 0.8674 0.0053 1 3.8
s12 O2- 0.7811 0.064 0.2141 1 3.8
s13 O2- 0.6628 0.9287 0.2032 1 4.1
s14 O2- 0.608 0.4332 0.1838 1 3.8
s15 O2- 0.5845 0.6998 0.0427 1 3.7
s16 O2- 0.4988 0.561 0.2906 1 3.6
s17 O2- 0.5969 0.6734 0.4786 1 4.2
s18 O2- 0.95 0.4462 0.1919 1 3
s19 O2- 0.9252 0.6903 0.0127 1 6.6
s20 O2- 0.9213 0.6881 0.4742 1 3.6
s21 O2- 0.8344 0.5495 0.1618 1 3.8
