data_global
_chemical_name_mineral 'C2S alphaï¿½h (Mumme)'
_symmetry_space_group_name_H-M pnma
_cell_length_a 6.87090015411377
_cell_length_b 5.60099983215332
_cell_length_c 9.55630016326904
_cell_angle_alpha 90     
_cell_angle_beta 90     
_cell_angle_gamma 90     
_cell_volume 367.763801244938
loop_
_atom_site_label
_atom_site_type_symbol
_atom_site_Wyckoff_symbol
_atom_site_fract_x
_atom_site_fract_y
_atom_site_fract_z
_atom_site_occupancy
_atom_site_B_iso_or_equiv
s1 Ca2+ d 0.3326 0.2823 0.5732 0.5 4.67
s2 Ca2+ d 0.9879 0.2952 0.2989 0.5 5.29
s3 Si4+ c 0.7831 0.25 0.5891 1 2.72
s4 O2- d 0.005 0.3081 0.5545 0.5 3.95
s5 O2- d 0.7436 0.0308 0.7016 0.5 3.62
s6 O2- d 0.6658 0.1901 0.4449 0.5 2.92
s7 O2- d 0.7041 0.503 0.6495 0.5 4.47
