data_Ca2_Si_O4_-_00-023-1044
#Copyright 2025 International Centre for Diffraction Data. All rights reserved.

_audit_creation_date                  2025-05-01
_audit_creation_method                'Generated by PDF-4+ 2020 4.20.0.1'

_chemical_name_systematic             'Calcium Silicate'
_chemical_name_common                 C2S
_chemical_formula_moiety              'Ca2 Si O4'
_chemical_formula_sum                 'Ca2 O4 Si'
_chemical_formula_weight              172.24

_cell_length_a                        6.8709(4)
_cell_length_b                        5.6010(4)
_cell_length_c                        9.5563(7)
_cell_angle_alpha                     90
_cell_angle_beta                      90
_cell_angle_gamma                     90
_cell_volume                          365.84
_cell_formula_units_Z                 4.00
_symmetry_cell_setting                orthorhombic
_symmetry_space_group_name_H-M        Pnma
_symmetry_Int_Tables_number           62

loop_
_symmetry_equiv_pos_site_id
_symmetry_equiv_pos_as_xyz
1 x,y,z
2 -x,-y,-z
3 x+1/2,-y+1/2,-z+1/2
4 -x+1/2,y+1/2,z+1/2
5 -x,y+1/2,-z
6 x,-y+1/2,z
7 -x+1/2,-y,z+1/2
8 x+1/2,y,-z+1/2

loop_
_atom_site_label
_atom_site_type_symbol
_atom_site_fract_x
_atom_site_fract_y
_atom_site_fract_z
_atom_site_B_iso_or_equiv
_atom_site_symmetry_multiplicity
_atom_site_Wyckoff_symbol
_atom_site_occupancy
Ca1 Ca 0.3326 0.2823 0.5732 4.67 8 d 0.5
Ca2 Ca 0.9879 0.2952 0.2989 5.29 8 d 0.5
Si3 Si 0.7831 0.25 0.5891 2.72 4 c 1.0
O4 O 0.005 0.3081 0.5545 3.95 8 d 0.5
O5 O 0.7436 0.0308 0.7016 3.62 8 d 0.5
O6 O 0.6658 0.1901 0.4449 2.92 8 d 0.5
O7 O 0.7041 0.503 0.6495 4.47 8 d 0.5

