data_global
_chemical_name_mineral 'C2S beta (MUMME)'
_symmetry_space_group_name_H-M p121/c1
_cell_length_a 9.31400012969971
_cell_length_b 6.75799989700317
_cell_length_c 10.4350004196167
_cell_angle_alpha 90     
_cell_angle_beta 148.231002807617
_cell_angle_gamma 90     
_cell_volume 345.813414312838
loop_
_atom_site_label
_atom_site_type_symbol
_atom_site_Wyckoff_symbol
_atom_site_fract_x
_atom_site_fract_y
_atom_site_fract_z
_atom_site_occupancy
_atom_site_B_iso_or_equiv
s1 CA2+ e 0.2028 0.3435 0.7724 1 0.52
s2 CA2+ e 0.4815 0.9979 0.7797 1 0.45
s3 SI4+ e 0.1513 0.7806 0.732 1 0.67
s4 O2- e 0.2229 0.0077 0.7805 1 0.59
s5 O2- e 0.833 0.7496 0.5247 1 0.49
s6 O2- e 0.3461 0.6728 0.9842 1 0.44
s7 O2- e 0.2287 0.6757 0.6569 1 0.7
