data_global
_chemical_name_mineral 'C2S gamma (MUMME)'
_symmetry_space_group_name_H-M pnma
_cell_length_a 11.2239999771118
_cell_length_b 6.76399993896484
_cell_length_c 5.08199977874756
_cell_angle_alpha 90     
_cell_angle_beta 90     
_cell_angle_gamma 90     
_cell_volume 385.821028086465
loop_
_atom_site_label
_atom_site_type_symbol
_atom_site_Wyckoff_symbol
_atom_site_fract_x
_atom_site_fract_y
_atom_site_fract_z
_atom_site_occupancy
_atom_site_B_iso_or_equiv
s1 CA2+ a 0 0 0 1 0.81
s2 CA2+ c 0.7809 0.25 0.5107 1 0.65
s3 SI4+ c 0.5978 0.25 0.0714 1 0.55
s4 O2- c 0.5931 0.25 0.7569 1 1.16
s5 O2- c 0.463 0.25 0.2064 1 1
s6 O2- d 0.1601 0.0588 0.3015 1 1.31
