data_global
_chemical_name_mineral 'C2SH alpha'
_symmetry_space_group_name_H-M pbca
_cell_length_a 9.48799991607666
_cell_length_b 9.18000030517578
_cell_length_c 10.6660003662109
_cell_angle_alpha 90     
_cell_angle_beta 90     
_cell_angle_gamma 90     
_cell_volume 929.006948003141
loop_
_atom_site_label
_atom_site_type_symbol
_atom_site_Wyckoff_symbol
_atom_site_fract_x
_atom_site_fract_y
_atom_site_fract_z
_atom_site_occupancy
_atom_site_B_iso_or_equiv
s1 CA2+ c 0.4841 0.1696 0.0686 1 0.68
s2 CA2+ c 0.3457 0.0058 0.3888 1 0.62
s3 SI4+ c 0.1693 0.2129 0.1597 1 0.53
s4 O2- c 0.056 0.1383 0.065 1 0.67
s5 O2- c 0.2493 0.3458 0.0728 1 0
s6 O2- c 0.2958 0.0994 0.1904 1 0.84
s7 O2- c 0.1018 0.2923 0.2797 1 0.81
s8 O2- c 0.394 0.4525 0.3962 1 0
s9 H c 0.238 0.438 0.11 1 3.71
s10 H c 0.406 0.413 0.339 1 4.9
