data_Ca3_Al2_O6_-_00-038-1429
#Copyright 2025 International Centre for Diffraction Data. All rights reserved.

_audit_creation_date                  2025-05-01
_audit_creation_method                'Generated by PDF-4+ 2020 4.20.0.1'

_chemical_name_systematic             'Calcium Aluminum Oxide'
_chemical_name_common                 'tricalcium aluminate'
_chemical_formula_moiety              'Ca3 Al2 O6'
_chemical_formula_sum                 'Al2 Ca3 O6'
_chemical_formula_weight              270.20

_cell_length_a                        15.2631
_cell_length_b                        15.2631
_cell_length_c                        15.2631
_cell_angle_alpha                     90
_cell_angle_beta                      90
_cell_angle_gamma                     90
_cell_volume                          3555.73
_cell_formula_units_Z                 24.00
_symmetry_cell_setting                cubic
_symmetry_space_group_name_H-M        Pa-3
_symmetry_Int_Tables_number           205

loop_
_symmetry_equiv_pos_site_id
_symmetry_equiv_pos_as_xyz
1 x,y,z
2 -x,-y,-z
3 x+1/2,-y+1/2,-z
4 -x+1/2,y+1/2,z
5 -x,y+1/2,-z+1/2
6 x,-y+1/2,z+1/2
7 -x+1/2,-y,z+1/2
8 x+1/2,y,-z+1/2
9 z,x,y
10 -z,-x,-y
11 z+1/2,-x+1/2,-y
12 -z+1/2,x+1/2,y
13 -z,x+1/2,-y+1/2
14 z,-x+1/2,y+1/2
15 -z+1/2,-x,y+1/2
16 z+1/2,x,-y+1/2
17 y,z,x
18 -y,-z,-x
19 y+1/2,-z+1/2,-x
20 -y+1/2,z+1/2,x
21 -y,z+1/2,-x+1/2
22 y,-z+1/2,x+1/2
23 -y+1/2,-z,x+1/2
24 y+1/2,z,-x+1/2

loop_
_atom_site_label
_atom_site_type_symbol
_atom_site_fract_x
_atom_site_fract_y
_atom_site_fract_z
_atom_site_U_iso_or_equiv
_atom_site_symmetry_multiplicity
_atom_site_Wyckoff_symbol
_atom_site_occupancy
Al1 Al 0.0046 0.2444 0.2335 . 24 d 1.0
O2 O 0.0103 0.2777 0.1241 . 24 d 1.0
O3 O 0.0104 0.4758 0.3491 . 24 d 1.0
Al4 Al 0.0133 0.0197 0.2526 . 24 d 1.0
O5 O 0.0385 0.4826 0.1509 . 24 d 1.0
O6 O 0.1049 0.2664 0.2841 . 24 d 1.0
Ca7 Ca 0.1209 0.38 0.3838 . 24 d 1.0
Ca8 Ca 0.1272 0.1386 0.3763 . 24 d 1.0
O9 O 0.1315 0.2536 0.4835 . 24 d 1.0
O10 O 0.235 0.4047 0.2921 . 24 d 1.0
Ca11 Ca 0.2561 0.2561 0.2561 . 8 c 1.0
Ca12 Ca 0.375 0.375 0.375 . 8 c 1.0
Ca13 Ca 0.5 0.5 0.5 . 4 b 1.0
Ca14 Ca 0.0 0.0 0.0 . 4 a 1.0

