data_global
_chemical_name_mineral 'C3A Na cubic'
_symmetry_space_group_name_H-M p213
_cell_length_a 15.2469997406006
_cell_length_b 15.2469997406006
_cell_length_c 15.2469997406006
_cell_angle_alpha 90     
_cell_angle_beta 90     
_cell_angle_gamma 90     
_cell_volume 3544.48529331447
loop_
_atom_site_label
_atom_site_type_symbol
_atom_site_Wyckoff_symbol
_atom_site_fract_x
_atom_site_fract_y
_atom_site_fract_z
_atom_site_occupancy
_atom_site_B_iso_or_equiv
s1 CA2+ a 0 0 0 1 0.98
s2 CA2+ a 0.5018 0.5018 0.5018 1 0.59
s3 CA2+ a 0.263 0.263 0.263 0.91 0.74
s4 NA1+ a 0.263 0.263 0.263 0.09 0.74
s5 CA2+ a 0.7438 0.7438 0.7438 0.73 0.69
s6 NA1+ a 0.7438 0.7438 0.7438 0.27 0.69
s7 CA2+ a 0.3814 0.3814 0.3814 0.97 1.13
s8 NA1+ a 0.3814 0.3814 0.3814 0.03 1.13
s9 CA2+ a 0.6237 0.6237 0.6237 0.76 0.89
s10 NA1+ a 0.6237 0.6237 0.6237 0.24 0.89
s11 CA2+ b 0.372 0.14 0.1361 0.5 2.17
s12 CA2+ b 0.3678 0.1262 0.1345 0.5 0.77
s13 CA2+ b 0.6232 0.1376 0.118 0.5 0.78
s14 CA2+ b 0.6431 0.1363 0.1287 0.5 0.99
s15 CA2+ b 0.3821 0.3863 0.1213 1 0.76
s16 CA2+ b 0.62 0.6119 0.8799 1 0.62
s17 NA1+ a 0.121 0.121 0.121 0.31 1.89
s18 NA1+ a 0.875 0.875 0.875 0.31 7.56
s19 AL3+ b 0.2539 0.0134 0.0167 1 0.46
s20 AL3+ b 0.7466 0.9871 0.9768 1 0.46
s21 AL3+ b 0.2434 0.2371 0.0053 1 0.54
s22 AL3+ b 0.7555 0.7623 0.9937 1 0.43
s23 O2- b 0.263 0.1264 0.0029 1 1.86
s24 O2- b 0.7342 0.8742 0.977 1 2.91
s25 O2- b 0.4759 0.1327 0.2475 1 0.89
s26 O2- b 0.5048 0.869 0.7632 1 1.54
s27 O2- b 0.2729 0.2765 0.1082 1 1.38
s28 O2- b 0.7371 0.7094 0.8942 1 1.48
s29 O2- b 0.2406 0.4114 0.304 1 1.26
s30 O2- b 0.7719 0.5938 0.7122 1 1.23
s31 O2- b 0.3502 0.9679 0.9726 1 1.09
s32 O2- b 0.6495 0.0233 0.0234 1 1.57
s33 O2- b 0.1497 0.9827 0.9829 1 1.02
s34 O2- b 0.8485 0.015 0.0163 1 0.59
