data_global
_chemical_name_mineral 'C3A monoclinic'
_symmetry_space_group_name_H-M p121/c1
_cell_length_a 10.8769998550415
_cell_length_b 10.8540000915527
_cell_length_c 15.1350002288818
_cell_angle_alpha 90     
_cell_angle_beta 57.2957795130823
_cell_angle_gamma 90     
_cell_volume 1503.55916052029
loop_
_atom_site_label
_atom_site_type_symbol
_atom_site_Wyckoff_symbol
_atom_site_fract_x
_atom_site_fract_y
_atom_site_fract_z
_atom_site_occupancy
_atom_site_B_iso_or_equiv
s1 Ca2+ e 0.0009 0.0021 0.5196 0.5 1
s2 Ca2+ e 0.00079 0.01849 0.23822 1 1
s3 Ca2+ e 0.0119 0.26769 0.13253 1 1
s4 Ca2+ e 0.26248 0.27015 0.2523 1 1
s5 Ca2+ e 0.261 0.246 0.49889 0.803 1
s6 Na1+ e 0.261 0.246 0.49889 0.197 1
s7 Ca2+ e 0.5024 0.4979 0.4838 0.5 1
s8 Ca2+ e 0.49159 0.48333 0.75982 1 1
s9 Ca2+ e 0.50547 0.23286 0.86592 1 1
s10 Ca2+ e 0.74938 0.22972 0.74671 1 1
s11 Ca2+ e 0.7629 0.2524 0.5014 0.447 1
s12 Na1+ e 0.7629 0.2524 0.5014 0.553 1
s13 Na1+ e 0.001 0.985 0.9901 0.375 1
s14 Na1+ e 0.5023 0.5184 0.011 0.375 1
s15 Al3+ e 0.9973 0.7845 0.11637 1 1
s16 Al3+ e 0.2403 0.9959 0.11432 1 1
s17 Al3+ e 0.2395 0.0058 0.89259 1 1
s18 Al3+ e 0.4944 0.7137 0.8839 1 1
s19 Al3+ e 0.7351 0.503 0.88866 1 1
s20 Al3+ e 0.7442 0.495 0.10988 1 1
s21 O2- e 0.862 0.8691 0.107 1 1
s22 O2- e 0.1172 0.8921 0.1287 1 1
s23 O2- e 0.2864 0.9777 0.0026 1 1
s24 O2- e 0.985 0.7123 0.2174 1 1
s25 O2- e 0.0235 0.7059 0.0174 1 1
s26 O2- e 0.3611 0.9297 0.1727 1 1
s27 O2- e 0.1849 0.1433 0.1367 1 1
s28 O2- e 0.1617 0.8705 0.8621 1 1
s29 O2- e 0.368 0.0677 0.8396 1 1
s30 O2- e 0.3522 0.6365 0.8882 1 1
s31 O2- e 0.6053 0.5968 0.8758 1 1
s32 O2- e 0.7853 0.5221 0.9987 1 1
s33 O2- e 0.499 0.7844 0.7816 1 1
s34 O2- e 0.5142 0.7929 0.9827 1 1
s35 O2- e 0.8508 0.5733 0.8273 1 1
s36 O2- e 0.6888 0.3503 0.8703 1 1
s37 O2- e 0.6638 0.6255 0.145 1 1
s38 O2- e 0.876 0.4337 0.1591 1 1
