data_global
_chemical_name_mineral 'C3A Na orthorhombic'
_symmetry_space_group_name_H-M pbca
_cell_length_a 10.8739995956421
_cell_length_b 10.8590002059937
_cell_length_c 15.1049995422363
_cell_angle_alpha 90     
_cell_angle_beta 90     
_cell_angle_gamma 90     
_cell_volume 1783.60988388685
loop_
_atom_site_label
_atom_site_type_symbol
_atom_site_Wyckoff_symbol
_atom_site_fract_x
_atom_site_fract_y
_atom_site_fract_z
_atom_site_occupancy
_atom_site_B_iso_or_equiv
s1 CA2+ c 0.0027 0.002 0.5182 0.25 1.03
s2 CA2+ c 0.9961 0.0177 0.2393 1 0.7
s3 CA2+ c 0.0093 0.2674 0.1331 1 0.69
s4 CA2+ c 0.2565 0.2707 0.2528 1 1.13
s5 CA2+ c 0.2627 0.2462 0.4983 1 1.05
s6 NA1+ a 0 0 0 1 2.91
s7 AL3+ c 0.9952 0.7859 0.116 1 0.41
s8 AL3+ c 0.2375 0.9967 0.1129 1 0.62
s9 AL3+ c 0.2421 0.0054 0.8914 1 1.6
s10 O2- c 0.8558 0.8661 0.1091 1 1.64
s11 O2- c 0.1107 0.8988 0.1263 1 1.76
s12 O2- c 0.287 0.9779 0.0023 1 0.94
s13 O2- c 0.9927 0.7144 0.2178 1 1.74
s14 O2- c 0.0196 0.7067 0.0172 1 1.32
s15 O2- c 0.3553 0.9278 0.1736 1 1.11
s16 O2- c 0.1886 0.1479 0.1324 1 1.27
s17 O2- c 0.1623 0.8723 0.8581 1 1.04
s18 O2- c 0.3717 0.0661 0.8403 1 0.92
