data_global
_chemical_name_mineral 'C3S rhombohedric (JEFFREY)'
_symmetry_space_group_name_H-M r3m
_cell_length_a 7.15000009536743
_cell_length_b 7.15000009536743
_cell_length_c 25.5599994659424
_cell_angle_alpha 90     
_cell_angle_beta 90     
_cell_angle_gamma 120    
_cell_volume 1131.62769404203
loop_
_atom_site_label
_atom_site_type_symbol
_atom_site_Wyckoff_symbol
_atom_site_fract_x
_atom_site_fract_y
_atom_site_fract_z
_atom_site_occupancy
_atom_site_B_iso_or_equiv
s1 SI4+ a 0 0 0 1 1
s2 SI4+ a 0 0 0.226 1 1
s3 SI4+ a 0 0 0.783 1 1
s4 CA2+ b 0.1617 0.8383 0.3363 1 1
s5 CA2+ b 0.5017 0.4983 0.4453 1 1
s6 CA2+ b 0.1717 0.8283 0.5573 1 1
s7 O2- a 0 0 0.064 1 1
s8 O2- a 0 0 0.29 1 1
s9 O2- a 0 0 0.847 1 1
s10 O2- a 0 0 0.398 1 1
s11 O2- a 0 0 0.506 1 1
s12 O2- a 0 0 0.614 1 1
s13 O2- b 0.7907 0.2093 0.3133 1 1
s14 O2- b 0.5427 0.4573 0.5393 1 1
s15 O2- b 0.7907 0.2093 0.0963 1 1
