data_global
_chemical_name_mineral 'C3S triclinic (Golovastikov)'
_symmetry_space_group_name_H-M p-1
_cell_length_a 11.6700000762939
_cell_length_b 14.2399997711182
_cell_length_c 13.7200002670288
_cell_angle_alpha 105.5  
_cell_angle_beta 94.3000030517578
_cell_angle_gamma 90.0100021362305
_cell_volume 2190.40881715556
loop_
_atom_site_label
_atom_site_type_symbol
_atom_site_Wyckoff_symbol
_atom_site_fract_x
_atom_site_fract_y
_atom_site_fract_z
_atom_site_occupancy
_atom_site_B_iso_or_equiv
s1 CA2+ i 0.7102 0.0039 0.975 1 0.4
s2 CA2+ i 0.3541 0.1525 0.6527 1 0.45
s3 CA2+ i 0.6751 0.3207 0.3351 1 0.51
s4 CA2+ i 0.8454 0.1667 0.1697 1 0.4
s5 CA2+ i 0.1908 0.3284 0.8152 1 0.4
s6 CA2+ i 0.3328 0.4107 0.6483 1 0.45
s7 CA2+ i 0.6476 0.0817 0.334 1 0.25
s8 CA2+ i 0.0536 0.1667 0.6176 1 0.33
s9 CA2+ i 0.6438 0.1808 0.7226 1 0.43
s10 CA2+ i 0.383 0.3474 0.3033 1 0.33
s11 CA2+ i 0.965 0.3339 0.3678 1 0.32
s12 CA2+ i 0.0498 0.3977 0.6244 1 0.33
s13 CA2+ i 0.3604 0.0547 0.2888 1 0.3
s14 CA2+ i 0.622 0.4145 0.7117 1 0.51
s15 CA2+ i 0.9682 0.1048 0.3762 1 0.37
s16 CA2+ i 0.4651 0.0913 0.8506 1 0.37
s17 CA2+ i 0.2141 0.2419 0.4658 1 0.32
s18 CA2+ i 0.804 0.2472 0.5175 1 0.33
s19 CA2+ i 0.5363 0.4148 0.1508 1 0.27
s20 CA2+ i 0.7012 0.488 0.9589 1 0.28
s21 CA2+ i 0.7241 0.2378 0.97 1 0.31
s22 CA2+ i 0.3039 0.2766 0.0251 1 0.54
s23 CA2+ i 0.8729 0.0824 0.8173 1 0.3
s24 CA2+ i 0.1371 0.4262 0.1848 1 0.34
s25 CA2+ i 0.0205 0.2604 0.9897 1 0.5
s26 CA2+ a 0 0 0 1 0.41
s27 CA2+ c 0 0.5 0 1 0.3
s28 CA2+ f 0.5 0 0.5 1 0.13
s29 CA2+ h 0.5 0.5 0.5 1 0.12
s30 SI4+ i 0.8322 0.4165 0.1646 1 0.2
s31 SI4+ i 0.4748 0.344 0.871 1 0.21
s32 SI4+ i 0.1616 0.08 0.8192 1 0.04
s33 SI4+ i 0.8002 0.0183 0.5467 1 0.23
s34 SI4+ i 0.1922 0.4972 0.4486 1 0.25
s35 SI4+ i 0.5221 0.1553 0.1222 1 0.15
s36 SI4+ i 0.1492 0.1806 0.2057 1 0.17
s37 SI4+ i 0.8709 0.3207 0.7842 1 0.17
s38 SI4+ i 0.4977 0.2486 0.5043 1 0.23
s39 O2- i 0.0339 0.1943 0.2619 1 0.41
s40 O2- i 0.5127 0.2655 0.1925 1 0.67
s41 O2- i 0.6528 0.1486 0.0807 1 0.62
s42 O2- i 0.1584 0.0685 0.1427 1 0.59
s43 O2- i 0.2204 0.2685 0.6427 1 0.34
s44 O2- i 0.5037 0.0541 0.6743 1 0.31
s45 O2- i 0.4211 0.1297 0.0254 1 0.6
s46 O2- i 0.2625 0.206 0.2903 1 0.54
s47 O2- i 0.6673 0.0923 0.8532 1 0.57
s48 O2- i 0.0105 0.2584 0.4944 1 0.38
s49 O2- i 0.5133 0.0806 0.191 1 0.45
s50 O2- i 0.1592 0.2553 0.1291 1 0.55
s51 O2- i 0.8279 0.395 0.4729 1 0.48
s52 O2- i 0.3124 0.4978 0.4018 1 0.37
s53 O2- i 0.1825 0.4137 0.5105 1 0.59
s54 O2- i 0.3379 0.4353 0.1771 1 0.5
s55 O2- i 0.161 0.3931 0.986 1 0.28
s56 O2- i 0.088 0.4729 0.356 1 0.53
s57 O2- i 0.2777 0.0582 0.7617 1 0.52
s58 O2- i 0.9492 0.4026 0.107 1 0.59
s59 O2- i 0.161 0.1919 0.8857 1 0.39
s60 O2- i 0.1468 0.0064 0.8928 1 0.42
s61 O2- i 0.8031 0.1819 0.3333 1 0.33
s62 O2- i 0.8955 0.1402 0.9995 1 0.37
s63 O2- i 0.5583 0.4518 0.338 1 0.46
s64 O2- i 0.0487 0.0587 0.7321 1 0.4
s65 O2- i 0.6123 0.2397 0.446 1 0.36
s66 O2- i 0.7683 0.0509 0.6645 1 0.48
s67 O2- i 0.4446 0.3903 0.9879 1 0.39
s68 O2- i 0.6109 0.3254 0.863 1 0.57
s69 O2- i 0.9981 0.3075 0.7361 1 0.49
s70 O2- i 0.6869 0.0169 0.4682 1 0.83
s71 O2- i 0.8604 0.2449 0.8521 1 0.52
s72 O2- i 0.7189 0.3952 0.086 1 0.36
s73 O2- i 0.7741 0.3028 0.6875 1 0.56
s74 O2- i 0.8915 0.0963 0.5267 1 0.52
s75 O2- i 0.8639 0.4292 0.8575 1 0.35
s76 O2- i 0.4144 0.1476 0.4653 1 0.59
s77 O2- i 0.1459 0.0887 0.4737 1 0.65
s78 O2- i 0.827 0.3351 0.2302 1 0.43
s79 O2- i 0.3964 0.244 0.8327 1 0.56
s80 O2- i 0.5193 0.2654 0.6264 1 0.46
s81 O2- i 0.4178 0.3379 0.484 1 0.42
s82 O2- i 0.182 0.4733 0.7596 1 0.36
s83 O2- i 0.44 0.4192 0.8047 1 0.41
