data_global
_chemical_name_mineral 'C6S3H gamma Dellaite'
_symmetry_space_group_name_H-M p-1
_cell_length_a 6.82499980926514
_cell_length_b 6.92999982833862
_cell_length_c 12.9069995880127
_cell_angle_alpha 90.6999969482422
_cell_angle_beta 97.5999984741211
_cell_angle_gamma 98.1999969482422
_cell_volume 598.615902191403
loop_
_atom_site_label
_atom_site_type_symbol
_atom_site_Wyckoff_symbol
_atom_site_fract_x
_atom_site_fract_y
_atom_site_fract_z
_atom_site_occupancy
_atom_site_B_iso_or_equiv
s1 CA2+ i 0.0823 0.1931 0.1036 1 0.76
s2 CA2+ i 0.1923 0.2062 0.4897 1 0.62
s3 CA2+ i 0.8947 0.4658 0.2913 1 0.63
s4 CA2+ i 0.5597 0.0333 0.3211 1 0.91
s5 CA2+ i 0.3145 0.1926 0.8758 1 0.64
s6 CA2+ i 0.5919 0.4761 0.7026 1 0.56
s7 SI4+ i 0.616 0.2884 0.0978 1 0.39
s8 SI4+ i 0.8105 0.2859 0.8857 1 0.4
s9 SI4+ i 0.7156 0.2983 0.509 1 0.37
s10 O2- i 0.6164 0.4863 0.1656 1 0.63
s11 O2- i 0.394 0.1867 0.0539 1 1.13
s12 O2- i 0.6173 0.1824 0.8074 1 1.06
s13 O2- i 0.7477 0.1522 0.1747 1 0.86
s14 O2- i 0.986 0.1517 0.9128 1 0.9
s15 O2- i 0.2288 0.1663 0.2997 1 1.45
s16 O2- i 0.8482 0.1286 0.4833 1 1.07
s17 O2- i 0.1901 0.2082 0.6863 1 1.06
s18 O2- i 0.5233 0.2157 0.5663 1 0.75
s19 O2- i 0.745 0.3403 0.9998 1 1.3
s20 O2- i 0.6414 0.3684 0.3914 1 0.83
s21 O2- i 0.834 0.4837 0.5817 1 0.71
s22 O2- i 0.1159 0.512 0.1694 1 0.71
s23 H i 0.1996 0.0501 0.2863 1 2.31
s24 H i 0.0744 0.13 0.6818 1 2.72
