data_global
_chemical_name_mineral 'CA'
_symmetry_space_group_name_H-M p121/c1
_cell_length_a 15.1899995803833
_cell_length_b 8.0930004119873
_cell_length_c 17.4799995422363
_cell_angle_alpha 90     
_cell_angle_beta 150.151000976563
_cell_angle_gamma 90     
_cell_volume 1069.52328718347
loop_
_atom_site_label
_atom_site_type_symbol
_atom_site_Wyckoff_symbol
_atom_site_fract_x
_atom_site_fract_y
_atom_site_fract_z
_atom_site_occupancy
_atom_site_B_iso_or_equiv
s1 CA2+ e 0.8505 0.0343 0.7612 1 0.5
s2 CA2+ e 0.8023 0.4702 0.7314 1 0.62
s3 CA2+ e 0.5074 0.5286 0.2604 1 0.94
s4 AL3+ e 0.8144 0.3268 0.5759 1 0.48
s5 AL3+ e 0.8137 0.7244 0.5808 1 0.44
s6 AL3+ e 0.4794 0.8289 0.4013 1 0.39
s7 AL3+ e 0.468 0.2193 0.3874 1 0.52
s8 AL3+ e 0.1565 0.7276 0.0648 1 0.43
s9 AL3+ e 0.1521 0.3341 0.06 1 0.55
s10 O2- e 0.946 0.24 0.923 1 0.39
s11 O2- e 0.095 0.532 0.984 1 0.56
s12 O2- e 0.095 0.863 0.946 1 0.51
s13 O2- e 0.958 0.246 0.754 1 0.29
s14 O2- e 0.591 0.26 0.564 1 0.49
s15 O2- e 0.711 0.853 0.57 1 0.52
s16 O2- e 0.756 0.524 0.567 1 0.67
s17 O2- e 0.612 0.227 0.417 1 0.48
s18 O2- e 0.376 0.024 0.321 1 0.39
s19 O2- e 0.291 0.355 0.244 1 0.33
s20 O2- e 0.386 0.727 0.252 1 0.59
s21 O2- e 0.275 0.245 0.078 1 0.3
