data_global
_chemical_name_mineral 'Calcite magnesian'
_symmetry_space_group_name_H-M r-3c
_cell_length_a 4.94299983978271
_cell_length_b 4.94299983978271
_cell_length_c 16.8500003814697
_cell_angle_alpha 90     
_cell_angle_beta 90     
_cell_angle_gamma 120    
_cell_volume 356.542856435799
loop_
_atom_site_label
_atom_site_type_symbol
_atom_site_Wyckoff_symbol
_atom_site_fract_x
_atom_site_fract_y
_atom_site_fract_z
_atom_site_occupancy
_atom_site_B_iso_or_equiv
s1 CA2+ b 0 0 0 0.9 0.95
s2 MG2+ b 0 0 0 0.1 0.95
s3 C a 0 0 0.25 1 0.9
s4 O e 0.257 0 0.25 1 0.94
