data_global
_chemical_name_mineral 'CFS Kirschsteinite'
_symmetry_space_group_name_H-M pnma
_cell_length_a 11.1599998474121
_cell_length_b 6.44000005722046
_cell_length_c 4.875  
_cell_angle_alpha 90     
_cell_angle_beta 90     
_cell_angle_gamma 90     
_cell_volume 350.368198322582
loop_
_atom_site_label
_atom_site_type_symbol
_atom_site_Wyckoff_symbol
_atom_site_fract_x
_atom_site_fract_y
_atom_site_fract_z
_atom_site_occupancy
_atom_site_B_iso_or_equiv
s1 FE2+ a 0 0 0 1 0.5
s2 CA2+ c 0.2768 0.25 0.9775 1 0.51
s3 SI4+ c 0.0816 0.25 0.411 1 0.42
s4 O2- c 0.0777 0.25 0.7457 1 0.65
s5 O2- c 0.449 0.25 0.246 1 0.58
s6 O2- d 0.1475 0.0457 0.2733 1 0.59
