data_Ca5_Si6_O17_(_H2_O_)5_-_04-013-6153
#Copyright 2025 International Centre for Diffraction Data. All rights reserved.

_audit_creation_date                  2025-05-01
_audit_creation_method                'Generated by PDF-4+ 2020 4.20.0.1'

_chemical_name_systematic             'Calcium Silicon Oxide Hydrate'
_chemical_formula_moiety              'Ca5 Si6 O17 ( H2 O )5'
_chemical_formula_sum                 'Ca5 H10 O22 Si6'
_chemical_formula_weight              730.96

_cell_length_a                        11.273(1)
_cell_length_b                        7.350(2)
_cell_length_c                        11.498(2)
_cell_angle_alpha                     99.17(1)
_cell_angle_beta                      97.19(1)
_cell_angle_gamma                     89.97(2)
_cell_volume                          932.93
_cell_formula_units_Z                 1.00
_symmetry_cell_setting                triclinic
_symmetry_space_group_name_H-M        C1
_symmetry_Int_Tables_number           1

loop_
_symmetry_equiv_pos_site_id
_symmetry_equiv_pos_as_xyz
1 x,y,z
2 x+1/2,y+1/2,z

loop_
_atom_site_label
_atom_site_type_symbol
_atom_site_fract_x
_atom_site_fract_y
_atom_site_fract_z
_atom_site_U_iso_or_equiv
_atom_site_symmetry_multiplicity
_atom_site_Wyckoff_symbol
_atom_site_occupancy
Si1 Si 0.8933 0.2067 0.1829 0.0016 2 a 1.0
Si2 Si -0.8926 -0.2073 -0.1841 0.0016 2 a 1.0
Si3 Si 0.9969 -0.0381 0.3577 0.0066 2 a 1.0
Si4 Si -0.9938 0.0376 -0.3586 0.0066 2 a 1.0
Si5 Si 0.8949 -0.3723 0.1877 0.0051 2 a 1.0
Si6 Si -0.8962 0.3702 -0.1872 0.0051 2 a 1.0
O7 O 0.913 0.125 0.311 0.009 2 a 1.0
O8 O -0.914 -0.122 -0.306 0.009 2 a 1.0
O9 O 0.914 -0.221 0.314 0.012 2 a 1.0
O10 O -0.916 0.23 -0.312 0.012 2 a 1.0
O11 O 0.77 -0.349 0.11 0.004 2 a 1.0
O12 O -0.769 0.346 -0.114 0.004 2 a 1.0
O13 O 0.764 0.153 0.11 0.007 2 a 1.0
O14 O -0.769 -0.148 -0.105 0.007 2 a 1.0
O15 O 0.003 -0.351 0.113 0.005 2 a 1.0
O16 O 0.001 0.358 -0.106 0.005 2 a 1.0
O17 O 0.002 0.154 0.099 0.005 2 a 1.0
O18 O 0.004 -0.161 -0.104 0.005 2 a 1.0
O19 O 0.891 0.429 0.236 0.008 2 a 1.0
O20 O -0.895 -0.432 -0.237 0.008 2 a 1.0
O21 O 0.009 -0.005 0.498 0.017 2 a 1.0
O22 O 0.508 0.009 0.508 0.026 2 a 1.0
O23 O 0.122 -0.041 0.31 0.01 2 a 1.0
O24 O -0.128 0.046 -0.32 0.01 2 a 1.0
O25 O -0.335 -0.063 -0.691 0.072 2 a 1.0
O26 O 0.335 0.041 0.695 0.072 2 a 1.0
Ca27 Ca 0.3617 0.1076 0.9233 0.0029 2 a 1.0
Ca28 Ca -0.3643 -0.1044 -0.9149 0.0029 2 a 1.0
Ca29 Ca 0.8709 0.0988 0.8976 0.0025 2 a 1.0
Ca30 Ca -0.8694 -0.101 -0.9056 0.0025 2 a 1.0
Ca31 Ca 0.3118 -0.019 0.4273 0.026 2 a 1.0
O32 O 0.258 -0.231 0.542 0.045 2 a 1.0
O33 O 0.262 0.25 0.532 0.057 2 a 1.0

