data_global
_chemical_name_mineral 'Clinochlore'
_symmetry_space_group_name_H-M c12/m1
_cell_length_a 5.30800008773804
_cell_length_b 9.18599987030029
_cell_length_c 14.3159999847412
_cell_angle_alpha 90     
_cell_angle_beta 97.2699966430664
_cell_angle_gamma 90     
_cell_volume 692.42633246189
loop_
_atom_site_label
_atom_site_type_symbol
_atom_site_Wyckoff_symbol
_atom_site_fract_x
_atom_site_fract_y
_atom_site_fract_z
_atom_site_occupancy
_atom_site_B_iso_or_equiv
s1 Mg2+ a 0 0 0 1 0.789568352
s2 Mg2+ g 0 0.351 0 1 0.789568352
s3 Mg2+ h 0 0.168 0.5 1 1.18435253
s4 Al3+ d 0 0.5 0.5 1 1.18435253
s5 Si4+ j 0.233 0.162 0.195 1 1.26330936
s6 Al3+ j 0.233 0.162 0.195 1 1.26330936
s7 O2- j 0.202 0.173 0.081 1 0.631654682
s8 O2- i 0.21 0 0.23 1 1.5791367
s9 O2- j 0.516 0.221 0.235 1 3.15827341
s10 O2- i 0.676 0 0.068 1 0.947482023
s11 O2- i 0.176 0 0.433 1 2.13183455
s12 O2- j 0.135 0.339 0.432 1 1.26330936
