data_global
_chemical_name_mineral 'Corundum'
_symmetry_space_group_name_H-M r-3c
_cell_length_a 4.76000022888184
_cell_length_b 4.76000022888184
_cell_length_c 12.9940004348755
_cell_angle_alpha 90     
_cell_angle_beta 90     
_cell_angle_gamma 120    
_cell_volume 254.969044164316
loop_
_atom_site_label
_atom_site_type_symbol
_atom_site_Wyckoff_symbol
_atom_site_fract_x
_atom_site_fract_y
_atom_site_fract_z
_atom_site_occupancy
_atom_site_B_iso_or_equiv
s1 AL3+ c 0 0 0.3522 1 0.32
s2 O2- e 0.6937 0 0.25 1 0.33
