data_global
_chemical_name_mineral 'Cristobalite low'
_symmetry_space_group_name_H-M p41212
_cell_length_a 4.96999979019165
_cell_length_b 4.96999979019165
_cell_length_c 6.92899990081787
_cell_angle_alpha 90     
_cell_angle_beta 90     
_cell_angle_gamma 90     
_cell_volume 171.152519199718
loop_
_atom_site_label
_atom_site_type_symbol
_atom_site_Wyckoff_symbol
_atom_site_fract_x
_atom_site_fract_y
_atom_site_fract_z
_atom_site_occupancy
_atom_site_B_iso_or_equiv
s1 SI4+ a 0.3005 0.3005 0 1 1.04
s2 O2- b 0.2392 0.1037 0.1786 1 1.86
