data_global
_chemical_name_mineral 'Cristobalite high'
_symmetry_space_group_name_H-M fd3m
_cell_length_a 7.16699981689453
_cell_length_b 7.16699981689453
_cell_length_c 7.16699981689453
_cell_angle_alpha 90     
_cell_angle_beta 90     
_cell_angle_gamma 90     
_cell_volume 368.139298246875
loop_
_atom_site_label
_atom_site_type_symbol
_atom_site_Wyckoff_symbol
_atom_site_fract_x
_atom_site_fract_y
_atom_site_fract_z
_atom_site_occupancy
_atom_site_B_iso_or_equiv
s1 SI4+ a 0.125 0.125 0.125 1 3.33
s2 O h 0 0.4556 0.5444 0.17 3.49
