data_global
_chemical_name_mineral 'Ettringite'
_symmetry_space_group_name_H-M p31c
_cell_length_a 11.2600002288818
_cell_length_b 11.2600002288818
_cell_length_c 10     
_cell_angle_alpha 90     
_cell_angle_beta 90     
_cell_angle_gamma 120    
_cell_volume 1098.01286948718
loop_
_atom_site_label
_atom_site_type_symbol
_atom_site_Wyckoff_symbol
_atom_site_fract_x
_atom_site_fract_y
_atom_site_fract_z
_atom_site_occupancy
_atom_site_B_iso_or_equiv
s1 AL3+ a 0 0 0 1 1.2
s2 AL3+ a 0 0 0.25 1 1.2
s3 CA2+ c 0.009 0.816 0.875 1 1.7
s4 CA2+ c 0.994 0.189 0.125 1 1.8
s5 O2- c 0.994 0.134 0.948 1 2.2
s6 O2- c 0.996 0.865 0.057 1 1
s7 O2- c 0.004 0.146 0.805 1 1.6
s8 O2- c 0.004 0.876 0.198 1 1
s9 O2- c 0 0.348 0.047 1 3.9
s10 O2- c 0.01 0.663 0.958 1 1.8
s11 O2- c 0.997 0.345 0.199 1 3.6
s12 O2- c 0.996 0.655 0.788 1 3.1
s13 O2- c 0.263 0.405 0.618 1 2.9
s14 O2- c 0.744 0.593 0.374 1 4.8
s15 O2- c 0.259 0.406 0.126 1 4.8
s16 O2- c 0.768 0.598 0.87 1 1.7
s17 O2- b 0.333333333333333 0.666666666666667 0.42 1 1.9
s18 O2- b 0.333333333333333 0.666666666666667 0.814 1 7.8
s19 O2- b 0.333333333333333 0.666666666666667 0.07 1 4.2
s20 O2- c 0.195 0.642 0.518 1 4.7
s21 O2- c 0.195 0.62 0.723 1 4.3
s22 O2- c 0.192 0.585 0.982 1 2.1
s23 O2- c 0.197 0.637 0.243 0.66667 5.4
s24 S b 0.333333333333333 0.666666666666667 0.491 1 2.2
s25 S b 0.333333333333333 0.666666666666667 0.75 1 1.6
s26 S b 0.333333333333333 0.666666666666667 0.009 1 1.4
