data_Ca10_(_Si_O4_)3_(_S_O4_)3_F2_-_01-080-8094
#Copyright 2025 International Centre for Diffraction Data. All rights reserved.

_audit_creation_date                  2025-05-02
_audit_creation_method                'Generated by PDF-4+ 2020 4.20.0.1'

_chemical_name_systematic             'Calcium Fluoride Silicate Sulfate'
_chemical_name_common                 'calcium silicate sulfate(VI) fluoride'
_chemical_formula_moiety              'Ca10 ( Si O4 )3 ( S O4 )3 F2'
_chemical_formula_sum                 'Ca10 F2 O24 S3 Si3'
_chemical_formula_weight              1003.20

_cell_length_a                        9.4486(1)
_cell_length_b                        9.4486(1)
_cell_length_c                        6.94259(11)
_cell_angle_alpha                     90
_cell_angle_beta                      90
_cell_angle_gamma                     120
_cell_volume                          536.77
_cell_formula_units_Z                 1.00
_symmetry_cell_setting                hexagonal
_symmetry_space_group_name_H-M        P63/m
_symmetry_Int_Tables_number           176

loop_
_symmetry_equiv_pos_site_id
_symmetry_equiv_pos_as_xyz
1 x,y,z
2 -x,-y,-z
3 -y,x-y,z
4 y,-x+y,-z
5 -x+y,-x,z
6 x-y,x,-z
7 -x,-y,z+1/2
8 x,y,-z+1/2
9 y,-x+y,z+1/2
10 -y,x-y,-z+1/2
11 x-y,x,z+1/2
12 -x+y,-x,-z+1/2

loop_
_atom_site_label
_atom_site_type_symbol
_atom_site_fract_x
_atom_site_fract_y
_atom_site_fract_z
_atom_site_B_iso_or_equiv
_atom_site_symmetry_multiplicity
_atom_site_Wyckoff_symbol
_atom_site_occupancy
Ca1 Ca 0.3333 0.6667 0.0026 1.46 4 f 1.0
Ca2 Ca 0.239 -0.0088 0.25 1.46 6 h 1.0
S3 S 0.398 0.37042 0.25 1.51 6 h 0.5
Si4 Si 0.398 0.37042 0.25 1.51 6 h 0.5
O5 O 0.3244 0.4842 0.25 1.51 6 h 1.0
O6 O 0.5868 0.4674 0.25 1.51 6 h 1.0
O7 O 0.3411 0.2574 0.0717 1.51 12 i 1.0
F8 F 0.0 0.0 0.25 1.46 2 a 1.0

