data_global
_chemical_name_mineral 'Fluorite'
_symmetry_space_group_name_H-M fm3m
_cell_length_a 5.46199989318848
_cell_length_b 5.46199989318848
_cell_length_c 5.46199989318848
_cell_angle_alpha 90     
_cell_angle_beta 90     
_cell_angle_gamma 90     
_cell_volume 162.950261568333
loop_
_atom_site_label
_atom_site_type_symbol
_atom_site_Wyckoff_symbol
_atom_site_fract_x
_atom_site_fract_y
_atom_site_fract_z
_atom_site_occupancy
_atom_site_B_iso_or_equiv
s1 CA2+ a 0 0 0 1 0.41
s2 F1- c 0.25 0.25 0.25 1 0.62
