data_Ca2_Al_(_O_H_)6_Cl_(_H2_O_)2_-_01-078-1219
#Copyright 2025 International Centre for Diffraction Data. All rights reserved.

_audit_creation_date                  2025-05-02
_audit_creation_method                'Generated by PDF-4+ 2020 4.20.0.1'

_chemical_name_systematic             'Calcium Aluminum Chloride Hydroxide Hydrate'
_chemical_name_common                 'friedel`s salt'
_chemical_formula_moiety              'Ca2 Al ( O H )6 Cl ( H2 O )2'
_chemical_formula_sum                 'Al Ca2 Cl H10 O8'
_chemical_formula_weight              280.66

_cell_length_a                        9.979(3)
_cell_length_b                        5.751(2)
_cell_length_c                        16.320(6)
_cell_angle_alpha                     90.00(3)
_cell_angle_beta                      104.53(3)
_cell_angle_gamma                     90.00(3)
_cell_volume                          906.64
_cell_formula_units_Z                 4.00
_symmetry_cell_setting                monoclinic
_symmetry_space_group_name_H-M        A2/n
_symmetry_Int_Tables_number           15

loop_
_symmetry_equiv_pos_site_id
_symmetry_equiv_pos_as_xyz
1 x,y,z
2 -x,-y,-z
3 -x+1/2,y,-z+1/2
4 x+1/2,-y,z+1/2
5 x,y+1/2,z+1/2
6 -x,-y+1/2,-z+1/2
7 -x+1/2,y+1/2,-z
8 x+1/2,-y+1/2,z

loop_
_atom_site_label
_atom_site_type_symbol
_atom_site_fract_x
_atom_site_fract_y
_atom_site_fract_z
_atom_site_B_iso_or_equiv
_atom_site_symmetry_multiplicity
_atom_site_Wyckoff_symbol
_atom_site_occupancy
Al1 Al 0.0 0.0 0.0 0.81812 4 a 1.0
Ca2 Ca 0.34882 6.2E-4 0.03717 1.00681 8 f 1.0
Cl3 Cl 0.25 -0.42451 0.25 2.69499 4 e 1.0
O4 O 0.12853 0.90438 0.93699 1.08118 8 f 1.0
O5 O 0.05296 -0.27981 0.06193 1.04165 8 f 1.0
O6 O 0.84802 0.8201 0.93553 1.10126 8 f 1.0
O7 O 0.41979 0.00443 0.19413 2.76541 8 f 1.0
H8 H 0.125 0.945 0.893 2.2029 8 f 1.0
H9 H 0.095 -0.275 0.105 2.29764 8 f 1.0
H10 H 0.845 0.789 0.889 2.29764 8 f 1.0
H11 H 0.375 0.896 0.215 4.00311 8 f 1.0
H12 H 0.503 0.999 0.217 5.10061 8 f 1.0

loop_
_atom_site_aniso_label
_atom_site_aniso_B_11
_atom_site_aniso_B_12
_atom_site_aniso_B_13
_atom_site_aniso_B_22
_atom_site_aniso_B_23
_atom_site_aniso_B_33
Al1 0.53 0.0 0.26 0.63 0.0 1.31
Ca2 0.65 -0.02 0.32 0.78 -0.01 1.61
Cl3 1.91 0.0 0.12 4.03 0.0 1.95
O4 0.98 0.06 0.43 1.03 0.12 1.31
O5 0.82 0.0 0.05 0.9 0.05 1.29
O6 0.86 -0.09 0.31 1.09 -0.19 1.37
O7 2.43 -0.58 0.36 3.42 0.07 2.32

