data_global
_chemical_name_mineral 'C2AS Gehlenite'
_symmetry_space_group_name_H-M p-421m
_cell_length_a 7.67999982833862
_cell_length_b 7.67999982833862
_cell_length_c 5.05999994277954
_cell_angle_alpha 90     
_cell_angle_beta 90     
_cell_angle_gamma 90     
_cell_volume 298.450927283204
loop_
_atom_site_label
_atom_site_type_symbol
_atom_site_Wyckoff_symbol
_atom_site_fract_x
_atom_site_fract_y
_atom_site_fract_z
_atom_site_occupancy
_atom_site_B_iso_or_equiv
s1 CA2+ e 0.8387 0.3387 0.4884 1 1.2
s2 AL3+ a 0 0 0 1 0.75
s3 AL3+ e 0.6431 0.1431 0.0437 0.5 0.85
s4 SI4+ f 0.6431 0 0.0437 0.5 0.85
s5 O2- c 0 0.5 0.8233 1 0.77
s6 O2- e 0.643 0.143 0.7165 1 0.46
s7 O2- f 0.0877 0.1673 0.8072 1 1.11
