data_global
_chemical_name_mineral 'Gibbsite'
_symmetry_space_group_name_H-M p121/c1
_cell_length_a 8.6850004196167
_cell_length_b 5.0770001411438
_cell_length_c 9.73600006103516
_cell_angle_alpha 90     
_cell_angle_beta 94.5   
_cell_angle_gamma 90     
_cell_volume 427.973358118839
loop_
_atom_site_label
_atom_site_type_symbol
_atom_site_Wyckoff_symbol
_atom_site_fract_x
_atom_site_fract_y
_atom_site_fract_z
_atom_site_occupancy
_atom_site_B_iso_or_equiv
s1 AL3+ e 0.1679 0.5295 0.9977 1 0.56
s2 AL3+ e 0.3344 0.0236 0.9976 1 0.57
s3 O2- e 0.1779 0.2183 0.8885 1 0.78
s4 O2- e 0.6692 0.6558 0.8977 1 0.79
s5 O2- e 0.4984 0.1315 0.8956 1 0.78
s6 O2- e 0.9795 0.6293 0.8932 1 0.8
s7 O2- e 0.2971 0.7178 0.8948 1 0.81
s8 O2- e 0.8194 0.1491 0.8985 1 0.76
s9 H e 0.101 0.152 0.876 1 1
s10 H e 0.595 0.573 0.902 1 1
s11 H e 0.503 0.137 0.81 1 1
s12 H e 0.971 0.801 0.893 1 1
s13 H e 0.293 0.724 0.804 1 1
s14 H e 0.815 0.16 0.81 1 1
