data_global
_chemical_name_mineral 'Glauberite'
_symmetry_space_group_name_H-M c12/c1
_cell_length_a 10.1300001144409
_cell_length_b 8.30599975585938
_cell_length_c 8.53299999237061
_cell_angle_alpha 90     
_cell_angle_beta 112.199996948242
_cell_angle_gamma 90     
_cell_volume 664.742438059127
loop_
_atom_site_label
_atom_site_type_symbol
_atom_site_Wyckoff_symbol
_atom_site_fract_x
_atom_site_fract_y
_atom_site_fract_z
_atom_site_occupancy
_atom_site_B_iso_or_equiv
s1 CA2+ e 0 0.9356 0.25 1 0.33
s2 NA1+ f 0.1371 0.4445 0.4394 1 1.5
s3 S f 0.1856 0.2143 0.1888 1 0.25
s4 O2- f 0.1252 0.0894 0.0583 1 1.08
s5 O2- f 0.1616 0.1633 0.3399 1 0.94
s6 O2- f 0.34 0.2294 0.2303 1 1.4
s7 O2- f 0.1134 0.3697 0.1325 1 0.95
