data_global
_chemical_name_mineral 'Halite'
_symmetry_space_group_name_H-M fm3m
_cell_length_a 5.6399998664856
_cell_length_b 5.6399998664856
_cell_length_c 5.6399998664856
_cell_angle_alpha 90     
_cell_angle_beta 90     
_cell_angle_gamma 90     
_cell_volume 179.406131258881
loop_
_atom_site_label
_atom_site_type_symbol
_atom_site_Wyckoff_symbol
_atom_site_fract_x
_atom_site_fract_y
_atom_site_fract_z
_atom_site_occupancy
_atom_site_B_iso_or_equiv
s1 NA1+ a 0 0 0 1 1.667
s2 CL1- b 0.5 0.5 0.5 1 1.4
