data_Ca4.9_(_Si5.5_Al0.5_O16.3_)_(_O_H_)0.7_(_H2_O_)5_-_01-074-2878
#Copyright 2025 International Centre for Diffraction Data. All rights reserved.

_audit_creation_date                  2025-05-01
_audit_creation_method                'Generated by PDF-4+ 2020 4.20.0.1'

_chemical_name_systematic             'Calcium Silicon Aluminum Oxide Hydroxide Hydrate'
_chemical_name_common                 'calcium alumosilicate hydroxide hydrate'
_chemical_formula_moiety              'Ca4.9 ( Si5.5 Al0.5 O16.3 ) ( O H )0.7 ( H2 O )5'
_chemical_formula_sum                 'Al0.5 Ca4.9 H10.7 O22 Si5.5'
_chemical_formula_weight              727.11

_cell_length_a                        6.7296(7)
_cell_length_b                        7.3550(5)
_cell_length_c                        22.610(2)
_cell_angle_alpha                     90
_cell_angle_beta                      90
_cell_angle_gamma                     123.242
_cell_volume                          935.98
_cell_formula_units_Z                 2.00
_symmetry_cell_setting                monoclinic
_symmetry_space_group_name_H-M        Bm
_symmetry_Int_Tables_number           8

loop_
_symmetry_equiv_pos_site_id
_symmetry_equiv_pos_as_xyz
1 x,y,z
2 x,y,-z
3 x+1/2,y,z+1/2
4 x+1/2,y,-z+1/2

loop_
_atom_site_label
_atom_site_type_symbol
_atom_site_fract_x
_atom_site_fract_y
_atom_site_fract_z
_atom_site_B_iso_or_equiv
_atom_site_symmetry_multiplicity
_atom_site_Wyckoff_symbol
_atom_site_occupancy
Ca1 Ca 0.255 0.435 0.205 0.24 4 b 1.0
Ca2 Ca 0.749 0.923 0.294 0.24 4 b 1.0
Ca3 Ca 0.572 0.12 0.036 0.2 4 b 0.45
Si4 Si 0.753 0.395 0.156 1.33 4 b 1.0
Si5 Si 0.907 0.757 0.071 1.33 4 b 0.75
Al6 Al 0.907 0.757 0.071 1.33 4 b 0.25
Si7 Si 0.741 0.959 0.159 1.33 4 b 1.0
O8 O 0.751 0.503 0.095 1.92 4 b 1.0
O9 O 0.762 0.188 0.132 1.92 4 b 1.0
O10 O 0.978 0.533 0.197 1.92 4 b 1.0
O11 O 0.515 0.31 0.195 1.92 4 b 1.0
O12 O 0.894 0.746 0.0 1.92 2 a 1.0
O13 O 0.198 0.892 0.095 1.92 4 b 1.0
O14 O 0.741 0.853 0.096 1.92 4 b 1.0
O15 O 0.509 0.801 0.195 1.92 4 b 1.0
O16 O 0.976 0.039 0.2 1.92 4 b 1.0
O17 O 0.385 0.276 0.0 4.51 2 a 1.0
O18 O 0.971 0.242 0.0 4.51 2 a 1.0
O19 O 0.383 0.746 0.0 4.51 2 a 1.0
O20 O 0.251 0.424 0.085 4.51 4 b 1.0

