data_Ca4_Al2_(_S_O4_)0.5_Cl_(_O_H_)12_(_H2_O_)5_-_04-018-3179
#Copyright 2025 International Centre for Diffraction Data. All rights reserved.

_audit_creation_date                  2025-05-15
_audit_creation_method                'Generated by PDF-4+ 2020 4.20.0.1'

_chemical_name_systematic             'Calcium Aluminum Chloride Sulfate Hydroxide Hydrate'
_chemical_formula_moiety              'Ca4 Al2 ( S O4 )0.5 Cl ( O H )12 ( H2 O )5'
_chemical_formula_sum                 'Al2 Ca4 Cl H22 O19 S0.5'
_chemical_formula_weight              591.92

_cell_length_a                        5.7508(2)
_cell_length_b                        5.7508(2)
_cell_length_c                        50.4185(29)
_cell_angle_alpha                     90
_cell_angle_beta                      90
_cell_angle_gamma                     120
_cell_volume                          1444.03
_cell_formula_units_Z                 3.00
_symmetry_cell_setting                rhombohedral
_symmetry_space_group_name_H-M        R-3
_symmetry_Int_Tables_number           148

loop_
_symmetry_equiv_pos_site_id
_symmetry_equiv_pos_as_xyz
1 x,y,z
2 -x,-y,-z
3 -y,x-y,z
4 y,-x+y,-z
5 -x+y,-x,z
6 x-y,x,-z
7 x+2/3,y+1/3,z+1/3
8 -x+2/3,-y+1/3,-z+1/3
9 -y+2/3,x-y+1/3,z+1/3
10 y+2/3,-x+y+1/3,-z+1/3
11 -x+y+2/3,-x+1/3,z+1/3
12 x-y+2/3,x+1/3,-z+1/3
13 x+1/3,y+2/3,z+2/3
14 -x+1/3,-y+2/3,-z+2/3
15 -y+1/3,x-y+2/3,z+2/3
16 y+1/3,-x+y+2/3,-z+2/3
17 -x+y+1/3,-x+2/3,z+2/3
18 x-y+1/3,x+2/3,-z+2/3

loop_
_atom_site_label
_atom_site_type_symbol
_atom_site_fract_x
_atom_site_fract_y
_atom_site_fract_z
_atom_site_U_iso_or_equiv
_atom_site_symmetry_multiplicity
_atom_site_Wyckoff_symbol
_atom_site_occupancy
Al1 Al 0.66666 0.33333 0.0784 . 6 c 1.0
Ca2 Ca 0.0 0.0 0.0901 . 6 c 1.0
Ca3 Ca 0.0 0.0 0.4 . 6 c 1.0
O4 O 0.418 0.3868 0.0993 . 18 f 1.0
O5 O 0.9126 0.2708 0.0581 . 18 f 1.0
O6 O 0.0 0.0 0.1397 . 6 c 1.0
O7 O 0.0 0.0 0.3504 . 6 c 1.0
Cl8 Cl 0.0 0.0 0.0 . 3 a 1.0
S9 S 0.0 0.0 0.5 . 3 b 0.5
O10 O 0.0 0.0 0.4712 . 6 c 0.25
O11 O 0.2689 0.185 0.5094 . 18 f 0.2496
O12 O 0.2689 0.185 0.5094 . 18 f 0.1664

