data_global
_chemical_name_mineral 'Langbeinite (Mereiter)'
_symmetry_space_group_name_H-M p213
_cell_length_a 9.91899967193604
_cell_length_b 9.91899967193604
_cell_length_c 9.91899967193604
_cell_angle_alpha 90     
_cell_angle_beta 90     
_cell_angle_gamma 90     
_cell_volume 975.896201727747
loop_
_atom_site_label
_atom_site_type_symbol
_atom_site_Wyckoff_symbol
_atom_site_fract_x
_atom_site_fract_y
_atom_site_fract_z
_atom_site_occupancy
_atom_site_B_iso_or_equiv
s1 K1+ a 0.06673 0.06673 0.06673 1 1
s2 K1+ a 0.29822 0.29822 0.29822 1 1
s3 Mg2+ a 0.58508 0.58508 0.58508 1 1
s4 Mg2+ a 0.84902 0.84902 0.84902 1 1
s5 S b 0.62557 0.46596 0.26784 1 1
s6 O2- b 0.65193 0.50333 0.40751 1 1
s7 O2- b 0.75011 0.48499 0.19096 1 1
s8 O2- b 0.57957 0.32559 0.25888 1 1
s9 O2- b 0.52354 0.5542 0.20782 1 1
