data_global
_chemical_name_mineral 'Maghemite'
_symmetry_space_group_name_H-M p4332
_cell_length_a 8.3459997177124
_cell_length_b 8.3459997177124
_cell_length_c 8.3459997177124
_cell_angle_alpha 90     
_cell_angle_beta 90     
_cell_angle_gamma 90     
_cell_volume 581.346546747168
loop_
_atom_site_label
_atom_site_type_symbol
_atom_site_Wyckoff_symbol
_atom_site_fract_x
_atom_site_fract_y
_atom_site_fract_z
_atom_site_occupancy
_atom_site_B_iso_or_equiv
s1 FE3+ c 0.2579 0.2579 0.2579 1 0
s2 FE3+ d 0.125 0.365 0.885 1 0
s3 FE3+ b 0.625 0.625 0.625 0.34 0
s4 O2- c 0.389 0.389 0.389 1 0
s5 O2- e 0.372 0.377 0.876 1 0
