data_global
_chemical_name_mineral 'Magnesite'
_symmetry_space_group_name_H-M r-3c
_cell_length_a 4.63199996948242
_cell_length_b 4.63199996948242
_cell_length_c 15.0120000839233
_cell_angle_alpha 90     
_cell_angle_beta 90     
_cell_angle_gamma 120    
_cell_volume 278.937102685154
loop_
_atom_site_label
_atom_site_type_symbol
_atom_site_Wyckoff_symbol
_atom_site_fract_x
_atom_site_fract_y
_atom_site_fract_z
_atom_site_occupancy
_atom_site_B_iso_or_equiv
s1 MG2+ b 0 0 0 1 0.53
s2 C a 0 0 0.25 1 0.47
s3 O e 0.2774 0 0.25 1 0.56
