data_global
_chemical_name_mineral 'Magnetite'
_symmetry_space_group_name_H-M fd3m
_cell_length_a 8.39500045776367
_cell_length_b 8.39500045776367
_cell_length_c 8.39500045776367
_cell_angle_alpha 90     
_cell_angle_beta 90     
_cell_angle_gamma 90     
_cell_volume 591.646326659097
loop_
_atom_site_label
_atom_site_type_symbol
_atom_site_Wyckoff_symbol
_atom_site_fract_x
_atom_site_fract_y
_atom_site_fract_z
_atom_site_occupancy
_atom_site_B_iso_or_equiv
s1 FE3+ a 0.125 0.125 0.125 1 0.16
s2 FE3+ d 0.5 0.5 0.5 0.5 0.86
s3 FE2+ d 0.5 0.5 0.5 0.5 0.86
s4 O2- e 0.7453 0.7453 0.7453 1 0.65
