data_global
_chemical_name_mineral 'Merwinite'
_symmetry_space_group_name_H-M p121/c1
_cell_length_a 13.2550001144409
_cell_length_b 5.29199981689453
_cell_length_c 9.32800006866455
_cell_angle_alpha 90     
_cell_angle_beta 91.9000015258789
_cell_angle_gamma 90     
_cell_volume 653.957105161392
loop_
_atom_site_label
_atom_site_type_symbol
_atom_site_Wyckoff_symbol
_atom_site_fract_x
_atom_site_fract_y
_atom_site_fract_z
_atom_site_occupancy
_atom_site_B_iso_or_equiv
s1 CA2+ e 0.2563 0.1789 0.2234 1 0.7
s2 CA2+ e 0.0811 0.2271 0.9247 1 0.66
s3 CA2+ e 0.0978 0.7333 0.4254 1 0.73
s4 MG2+ e 0.0043 0.2566 0.2535 1 0.42
s5 SI4+ e 0.1326 0.2293 0.6008 1 0.19
s6 SI4+ e 0.1412 0.728 0.0931 1 0.18
s7 O2- e 0.074 0.2123 0.445 1 1.04
s8 O2- e 0.0632 0.4193 0.6937 1 0.96
s9 O2- e 0.1253 0.9525 0.6773 1 0.76
s10 O2- e 0.2414 0.3618 0.594 1 0.91
s11 O2- e 0.0768 0.7064 0.9409 1 0.87
s12 O2- e 0.2548 0.813 0.0683 1 0.82
s13 O2- e 0.1266 0.4726 0.1853 1 0.74
s14 O2- e 0.0832 0.9576 0.1751 1 0.84
