data_K2_Mg2_(_S_O4_)3_-_00-019-0974
#Copyright 2025 International Centre for Diffraction Data. All rights reserved.

_audit_creation_date                  2025-05-02
_audit_creation_method                'Generated by PDF-4+ 2020 4.20.0.1'

_chemical_name_systematic             'Potassium Magnesium Sulfate'
_chemical_formula_moiety              'K2 Mg2 ( S O4 )3'
_chemical_formula_sum                 'K2 Mg2 O12 S3'
_chemical_formula_weight              414.98
_chemical_melting_point               1216.0

_cell_length_a                        9.920(4)
_cell_length_b                        9.920(4)
_cell_length_c                        9.920(4)
_cell_angle_alpha                     90
_cell_angle_beta                      90
_cell_angle_gamma                     90
_cell_volume                          976.52
_cell_formula_units_Z                 4.00
_symmetry_cell_setting                cubic
_symmetry_space_group_name_H-M        P213
_symmetry_Int_Tables_number           198

loop_
_symmetry_equiv_pos_site_id
_symmetry_equiv_pos_as_xyz
1 x,y,z
2 z,x,y
3 y,z,x
4 x+1/2,-y+1/2,-z
5 z+1/2,-x+1/2,-y
6 y+1/2,-z+1/2,-x
7 -x,y+1/2,-z+1/2
8 -z,x+1/2,-y+1/2
9 -y,z+1/2,-x+1/2
10 -x+1/2,-y,z+1/2
11 -z+1/2,-x,y+1/2
12 -y+1/2,-z,x+1/2

loop_
_atom_site_label
_atom_site_type_symbol
_atom_site_fract_x
_atom_site_fract_y
_atom_site_fract_z
_atom_site_U_iso_or_equiv
_atom_site_symmetry_multiplicity
_atom_site_Wyckoff_symbol
_atom_site_occupancy
K1 K 0.068 0.068 0.068 . 4 a 1.0
K2 K 0.297 0.297 0.297 . 4 a 1.0
Mg3 Mg 0.584 0.584 0.584 . 4 a 1.0
Mg4 Mg 0.85 0.85 0.85 . 4 a 1.0
S5 S 0.625 0.467 0.268 . 12 b 1.0
O6 O 0.651 0.498 0.412 . 12 b 1.0
O7 O 0.754 0.488 0.196 . 12 b 1.0
O8 O 0.573 0.327 0.258 . 12 b 1.0
O9 O 0.521 0.557 0.213 . 12 b 1.0

