data_global
_chemical_name_mineral 'Natrolite'
_symmetry_space_group_name_H-M fdd2
_cell_length_a 18.3010005950928
_cell_length_b 18.6299991607666
_cell_length_c 6.59999990463257
_cell_angle_alpha 90     
_cell_angle_beta 90     
_cell_angle_gamma 90     
_cell_volume 2250.25429728797
loop_
_atom_site_label
_atom_site_type_symbol
_atom_site_Wyckoff_symbol
_atom_site_fract_x
_atom_site_fract_y
_atom_site_fract_z
_atom_site_occupancy
_atom_site_B_iso_or_equiv
s1 NA1+ b 0.2216 0.0311 0.6158 1 1.12
s2 AL3+ b 0.0373 0.0944 0.612 1 0.5
s3 SI4+ a 0 0 0 1 0.47
s4 SI4+ b 0.1542 0.2111 0.622 1 0.59
s5 O2- b 0.023 0.0683 0.8595 1 1.07
s6 O2- b 0.0703 0.1821 0.5954 1 0.3
s7 O2- b 0.098 0.0351 0.4967 1 0.9
s8 O2- b 0.2066 0.153 0.7219 1 0.89
s9 O2- b 0.1804 0.2275 0.3828 1 1.08
s10 O2- b 0.0562 0.1894 0.1045 1 1.78
s11 H b 0.0513 0.1443 0.0282 1 2.83
s12 H b 0.1012 0.1883 0.174 1 3.73
