data_global
_chemical_name_mineral 'Orthoclase'
_symmetry_space_group_name_H-M c12/m1
_cell_length_a 8.58899974822998
_cell_length_b 13.0050001144409
_cell_length_c 7.19199991226196
_cell_angle_alpha 90     
_cell_angle_beta 116    
_cell_angle_gamma 90     
_cell_volume 722.042582288928
loop_
_atom_site_label
_atom_site_type_symbol
_atom_site_Wyckoff_symbol
_atom_site_fract_x
_atom_site_fract_y
_atom_site_fract_z
_atom_site_occupancy
_atom_site_B_iso_or_equiv
s1 SI4+ j 0.009 0.1842 0.2226 0.75 0.16
s2 AL3+ j 0.009 0.1842 0.2226 0.25 0.16
s3 SI4+ j 0.7078 0.1185 0.3395 0.75 0.16
s4 AL3+ j 0.7078 0.1185 0.3395 0.25 0.16
s5 O2- g 0 0.8513 0 1 0.95
s6 O2- i 0.3672 0 0.7218 1 0.95
s7 O2- j 0.8307 0.1466 0.2218 1 0.95
s8 O2- j 0.0364 0.3126 0.2546 1 0.95
s9 O2- j 0.1821 0.1254 0.4063 1 0.95
s10 K1+ i 0.7168 0 0.8642 1 0.47
