data_global
_chemical_name_mineral 'Perowskite'
_symmetry_space_group_name_H-M pnma
_cell_length_a 5.44199991226196
_cell_length_b 7.6399998664856
_cell_length_c 5.38000011444092
_cell_angle_alpha 90     
_cell_angle_beta 90     
_cell_angle_gamma 90     
_cell_volume 223.683611642753
loop_
_atom_site_label
_atom_site_type_symbol
_atom_site_Wyckoff_symbol
_atom_site_fract_x
_atom_site_fract_y
_atom_site_fract_z
_atom_site_occupancy
_atom_site_B_iso_or_equiv
s1 CA2+ c 0.536 0.25 0.5068 1 0.61
s2 TI4+ b 0 0 0.5 1 0.39
s3 O2- c 0.9838 0.25 0.4286 1 0.53
s4 O2- d 0.2888 0.0371 0.7108 1 0.5
