data_Ca_(_O_H_)2_-_00-004-0733
#Copyright 2025 International Centre for Diffraction Data. All rights reserved.

_audit_creation_date                  2025-05-01
_audit_creation_method                'Generated by PDF-4+ 2020 4.20.0.1'

_chemical_name_systematic             'Calcium Hydroxide'
_chemical_formula_moiety              'Ca ( O H )2'
_chemical_formula_sum                 'Ca H2 O2'
_chemical_formula_weight              74.09

_cell_length_a                        3.5918(66)
_cell_length_b                        3.5918(66)
_cell_length_c                        4.9063(96)
_cell_angle_alpha                     90
_cell_angle_beta                      90
_cell_angle_gamma                     120
_cell_volume                          54.88
_cell_formula_units_Z                 1.00
_symmetry_cell_setting                hexagonal
_symmetry_space_group_name_H-M        P-3m1
_symmetry_Int_Tables_number           164

loop_
_symmetry_equiv_pos_site_id
_symmetry_equiv_pos_as_xyz
1 x,y,z
2 -x,-y,-z
3 -y,x-y,z
4 y,-x+y,-z
5 -x+y,-x,z
6 x-y,x,-z
7 -y,-x,z
8 y,x,-z
9 x,x-y,z
10 -x,-x+y,-z
11 -x+y,y,z
12 x-y,-y,-z

loop_
_atom_site_label
_atom_site_type_symbol
_atom_site_fract_x
_atom_site_fract_y
_atom_site_fract_z
_atom_site_U_iso_or_equiv
_atom_site_symmetry_multiplicity
_atom_site_Wyckoff_symbol
_atom_site_occupancy
Ca1 Ca 0.0 0.0 0.0 0.01194 1 a 1.0
O2 O 0.33333 0.66666 0.234 0.01203 2 d 1.0
H3 H 0.33333 0.66666 0.4256 0.04203 2 d 1.0

loop_
_atom_site_aniso_label
_atom_site_aniso_U_11
_atom_site_aniso_U_12
_atom_site_aniso_U_13
_atom_site_aniso_U_22
_atom_site_aniso_U_23
_atom_site_aniso_U_33
Ca1 0.0083 0.0042 0.0 0.0083 0.0 0.0193
O2 0.0106 0.0053 0.0 0.0106 0.0 0.0149
H3 0.0528 0.0264 0.0 0.0528 0.0 0.0205

