data_Si_O2_-_00-033-1161
#Copyright 2025 International Centre for Diffraction Data. All rights reserved.

_audit_creation_date                  2025-05-02
_audit_creation_method                'Generated by PDF-4+ 2020 4.20.0.1'

_chemical_name_systematic             'Silicon Oxide'
_chemical_name_common                 'low quartz, silica'
_chemical_formula_moiety              'Si O2'
_chemical_formula_sum                 'O2 Si'
_chemical_formula_weight              60.08

_cell_length_a                        4.91427(12)
_cell_length_b                        4.91427(12)
_cell_length_c                        5.4058(2)
_cell_angle_alpha                     90
_cell_angle_beta                      90
_cell_angle_gamma                     120
_cell_volume                          113.01
_cell_formula_units_Z                 3.00
_symmetry_cell_setting                hexagonal
_symmetry_space_group_name_H-M        P3221
_symmetry_Int_Tables_number           154

loop_
_symmetry_equiv_pos_site_id
_symmetry_equiv_pos_as_xyz
1 x,y,z
2 -y,x-y,z+2/3
3 -x+y,-x,z+1/3
4 y,x,-z
5 -x,-x+y,-z+2/3
6 x-y,-y,-z+1/3

loop_
_atom_site_label
_atom_site_type_symbol
_atom_site_fract_x
_atom_site_fract_y
_atom_site_fract_z
_atom_site_U_iso_or_equiv
_atom_site_symmetry_multiplicity
_atom_site_Wyckoff_symbol
_atom_site_occupancy
Si1 Si 0.4723 0.0 0.66666 0.00754 3 a 1.0
O2 O 0.416 0.2658 0.7881 0.01747 6 c 1.0

loop_
_atom_site_aniso_label
_atom_site_aniso_U_11
_atom_site_aniso_U_12
_atom_site_aniso_U_13
_atom_site_aniso_U_22
_atom_site_aniso_U_23
_atom_site_aniso_U_33
Si1 0.0075 0.00475 -0.002 0.0095 -4.0E-5 0.0063
O2 0.026 0.016 -0.003 0.02 -5.0E-5 0.0124

