data_global
_chemical_name_mineral 'Rozenite'
_symmetry_space_group_name_H-M p121/c1
_cell_length_a 5.97900009155273
_cell_length_b 13.6479997634888
_cell_length_c 7.97700023651123
_cell_angle_alpha 90     
_cell_angle_beta 90.4300003051758
_cell_angle_gamma 90     
_cell_volume 650.915990496179
loop_
_atom_site_label
_atom_site_type_symbol
_atom_site_Wyckoff_symbol
_atom_site_fract_x
_atom_site_fract_y
_atom_site_fract_z
_atom_site_occupancy
_atom_site_B_iso_or_equiv
s1 Fe2+ e 0.0678 0.1026 0.2183 1 1
s2 S e 0.1979 0.1096 0.8236 1 1
s3 O2- e 0.0071 0.0484 0.7554 1 1
s4 O2- e 0.2537 0.0768 0.9974 1 1
s5 O2- e 0.395 0.0953 0.7135 1 1
s6 O2- e 0.13 0.2133 0.8188 1 1
s7 O2- e 0.3585 0.0729 0.3585 1 1
s8 O2- e 0.7688 0.1391 0.0859 1 1
s9 O2- e 0.8837 0.1254 0.4421 1 1
s10 O2- e 0.1826 0.25 0.216 1 1
s11 H e 0.36 0.07 0.485 1 1
s12 H e 0.444 0.017 0.323 1 1
s13 H e 0.682 0.198 0.092 1 1
s14 H e 0.684 0.098 0.017 1 1
s15 H e 0.766 0.171 0.463 1 1
s16 H e 0.935 0.096 0.547 1 1
s17 H e 0.322 0.242 0.275 1 1
s18 H e 0.62 0.19 0.759 1 1
