data_global
_chemical_name_mineral 'Rutile'
_symmetry_space_group_name_H-M p42/mnm
_cell_length_a 4.5939998626709
_cell_length_b 4.5939998626709
_cell_length_c 2.96000003814697
_cell_angle_alpha 90     
_cell_angle_beta 90     
_cell_angle_gamma 90     
_cell_volume 62.4703116302175
loop_
_atom_site_label
_atom_site_type_symbol
_atom_site_Wyckoff_symbol
_atom_site_fract_x
_atom_site_fract_y
_atom_site_fract_z
_atom_site_occupancy
_atom_site_B_iso_or_equiv
s1 TI4+ a 0 0 0 1 0.42
s2 O2- f 0.6949 0.6949 0 1 0.6
