data_global
_chemical_name_mineral 'Sillimanite'
_symmetry_space_group_name_H-M pnma
_cell_length_a 7.6710000038147
_cell_length_b 5.76999998092651
_cell_length_c 7.48400020599365
_cell_angle_alpha 90     
_cell_angle_beta 90     
_cell_angle_gamma 90     
_cell_volume 331.254346467348
loop_
_atom_site_label
_atom_site_type_symbol
_atom_site_Wyckoff_symbol
_atom_site_fract_x
_atom_site_fract_y
_atom_site_fract_z
_atom_site_occupancy
_atom_site_B_iso_or_equiv
s1 AL3+ a 0 0 0 1 0.17
s2 AL3+ c 0.8433 0.25 0.3572 0.91 0.24
s3 SI4+ c 0.8433 0.25 0.3572 0.09 0.24
s4 SI4+ c 0.6588 0.25 0.8476 0.91 0.22
s5 AL3+ c 0.6588 0.25 0.8476 0.09 0.22
s6 O2- c 0.5931 0.25 0.6393 1 0.13
s7 O2- c 0.9361 0.25 0.1446 1 0.18
s8 O2- c 0.9965 0.25 0.5217 1 0.69
s9 O2- d 0.2222 0.5131 0.1256 1 0.26
