data_global
_chemical_name_mineral 'Natron (Soda)'
_symmetry_space_group_name_H-M c1c1
_cell_length_a 12.8299999237061
_cell_length_b 9.02600002288818
_cell_length_c 13.4399995803833
_cell_angle_alpha 90     
_cell_angle_beta 123    
_cell_angle_gamma 90     
_cell_volume 1305.30692335945
loop_
_atom_site_label
_atom_site_type_symbol
_atom_site_fract_x
_atom_site_fract_y
_atom_site_fract_z
_atom_site_occupancy
_atom_site_B_iso_or_equiv
s1 NA1+ 0.24 0.225 0.128 1 1.7
s2 NA1+ 0.252 0.27 0.872 1 1.9
s3 O2- 0.125 0.988 0.091 1 3
s4 O2- 0.376 0.56 0.208 1 2
s5 O2- 0.093 0.312 0.175 1 1.7
s6 O2- 0.374 0.121 0.322 1 1.8
s7 O2- 0.139 0.374 0.942 1 2.2
s8 O2- 0.355 0.125 0.047 1 2
s9 O2- 0.128 0.049 0.785 1 2.5
s10 O2- 0.372 0.502 0.92 1 2.4
s11 O2- 0.12 0.376 0.668 1 2.7
s12 O2- 0.399 0.187 0.814 1 2.7
s13 C 0.25 0.754 0 1 1
s14 O2- 0.266 0.718 0.097 0.5 3.5
s15 O2- 0.344 0.793 0.997 0.5 2.5
s16 O2- 0.139 0.794 0.904 0.5 2
s17 O2- 0.253 0.834 0.927 0.5 4.6
s18 O2- 0.151 0.675 0.999 0.5 3.8
s19 O2- 0.336 0.809 0.093 0.5 4.1
