data_global
_chemical_name_mineral 'Spinel'
_symmetry_space_group_name_H-M fd3m
_cell_length_a 8.07999992370605
_cell_length_b 8.07999992370605
_cell_length_c 8.07999992370605
_cell_angle_alpha 90     
_cell_angle_beta 90     
_cell_angle_gamma 90     
_cell_volume 527.514097057129
loop_
_atom_site_label
_atom_site_type_symbol
_atom_site_Wyckoff_symbol
_atom_site_fract_x
_atom_site_fract_y
_atom_site_fract_z
_atom_site_occupancy
_atom_site_B_iso_or_equiv
s1 MG2+ a 0 0 0 1 0.6
s2 AL3+ d 0.625 0.625 0.625 1 0.65
s3 O2- e 0.8627 0.8627 0.8627 1 0.86
