data_global
_chemical_name_mineral 'Spurrite (Smith)'
_symmetry_space_group_name_H-M p121/c1
_cell_length_a 10.4899997711182
_cell_length_b 6.70499992370606
_cell_length_c 14.1599998474121
_cell_angle_alpha 90     
_cell_angle_beta 101.319999694824
_cell_angle_gamma 90     
_cell_volume 976.5749192276
loop_
_atom_site_label
_atom_site_type_symbol
_atom_site_Wyckoff_symbol
_atom_site_fract_x
_atom_site_fract_y
_atom_site_fract_z
_atom_site_occupancy
_atom_site_B_iso_or_equiv
s1 Ca2+ e 0.14 0.661 0.072 1 1
s2 Ca2+ e 0.033 0.24 0.612 1 1
s3 Ca2+ e 0.239 0.061 0.455 1 1
s4 Ca2+ e 0.044 0.99 0.83 1 1
s5 Ca2+ e 0.133 0.507 0.826 1 1
s6 Si4+ e 0.135 0.221 0.056 1 1
s7 Si4+ e 0.025 0.75 0.604 1 1
s8 O2- e 0.124 0.237 0.938 1 1
s9 O2- e 0.141 0.995 0.098 1 1
s10 O2- e 0.008 0.334 0.083 1 1
s11 O2- e 0.263 0.333 0.106 1 1
s12 O2- e 0.883 0.153 0.468 1 1
s13 O2- e 0.89 0.427 0.335 1 1
s14 O2- e 0.024 0.072 0.33 1 1
s15 O2- e 0.098 0.34 0.468 1 1
s16 O2- e 0.283 0.696 0.235 1 1
s17 O2- e 0.073 0.685 0.23 1 1
s18 O2- e 0.211 0.712 0.372 1 1
s19 C e 0.185 0.695 0.285 1 1
