data_Ca2_Al_(_O_H_)6_(_Al_Si_(_O_H_)8_)_(_H2_O_)_-_01-085-8414
#Copyright 2025 International Centre for Diffraction Data. All rights reserved.

_audit_creation_date                  2025-05-13
_audit_creation_method                'Generated by PDF-4+ 2020 4.20.0.1'

_chemical_name_systematic             'Calcium Aluminum Hydroxide Aluminum Silicon Hydroxide Hydrate'
_chemical_name_common                 'dicalcium hexahydroxoaluminate octahydroxoalumosilicate hydrate'
_chemical_formula_moiety              'Ca2 Al ( O H )6 ( Al Si ( O H )8 ) ( H2 O )'
_chemical_formula_sum                 'Al2 Ca2 H16 O15 Si'
_chemical_formula_weight              418.32

_cell_length_a                        5.75355
_cell_length_b                        5.75355
_cell_length_c                        37.7315(27)
_cell_angle_alpha                     90
_cell_angle_beta                      90
_cell_angle_gamma                     120
_cell_volume                          1081.70
_cell_formula_units_Z                 3.00
_symmetry_cell_setting                rhombohedral
_symmetry_space_group_name_H-M        R-3m
_symmetry_Int_Tables_number           166

loop_
_symmetry_equiv_pos_site_id
_symmetry_equiv_pos_as_xyz
1 x,y,z
2 -x,-y,-z
3 -y,x-y,z
4 y,-x+y,-z
5 -x+y,-x,z
6 x-y,x,-z
7 -y,-x,z
8 y,x,-z
9 x,x-y,z
10 -x,-x+y,-z
11 -x+y,y,z
12 x-y,-y,-z
13 x+2/3,y+1/3,z+1/3
14 -x+2/3,-y+1/3,-z+1/3
15 -y+2/3,x-y+1/3,z+1/3
16 y+2/3,-x+y+1/3,-z+1/3
17 -x+y+2/3,-x+1/3,z+1/3
18 x-y+2/3,x+1/3,-z+1/3
19 -y+2/3,-x+1/3,z+1/3
20 y+2/3,x+1/3,-z+1/3
21 x+2/3,x-y+1/3,z+1/3
22 -x+2/3,-x+y+1/3,-z+1/3
23 -x+y+2/3,y+1/3,z+1/3
24 x-y+2/3,-y+1/3,-z+1/3
25 x+1/3,y+2/3,z+2/3
26 -x+1/3,-y+2/3,-z+2/3
27 -y+1/3,x-y+2/3,z+2/3
28 y+1/3,-x+y+2/3,-z+2/3
29 -x+y+1/3,-x+2/3,z+2/3
30 x-y+1/3,x+2/3,-z+2/3
31 -y+1/3,-x+2/3,z+2/3
32 y+1/3,x+2/3,-z+2/3
33 x+1/3,x-y+2/3,z+2/3
34 -x+1/3,-x+y+2/3,-z+2/3
35 -x+y+1/3,y+2/3,z+2/3
36 x-y+1/3,-y+2/3,-z+2/3

loop_
_atom_site_label
_atom_site_type_symbol
_atom_site_fract_x
_atom_site_fract_y
_atom_site_fract_z
_atom_site_U_iso_or_equiv
_atom_site_symmetry_multiplicity
_atom_site_Wyckoff_symbol
_atom_site_occupancy
Al1 Al 0.0 0.0 0.0 0.0163 3 a 1.0
Ca2 Ca 0.3333 0.6667 0.01462 0.0011 6 c 1.0
O3 O 0.7368 0.0433 0.02734 0.0387 36 i 0.5
O4 O 0.3333 0.6667 0.08739 0.0387 6 c 1.0
Si5 Si 0.6667 0.3333 0.12409 0.031 6 c 0.25
Al6 Al 0.6667 0.3333 0.12409 0.031 6 c 0.25
Si7 Si 0.0 0.0 0.1212 0.025 6 c 0.25
Al8 Al 0.0 0.0 0.1212 0.025 6 c 0.25
O9 O 0.6667 0.3333 0.1678 0.0387 6 c 1.0
O10 O 0.8311 0.1689 0.10468 0.0387 18 h 1.0
O11 O 0.3333 0.6667 0.16667 0.0387 3 b 0.25

