data_global
_chemical_name_mineral 'Sulfatespurrite'
_symmetry_space_group_name_H-M pnma
_cell_length_a 10.1820001602173
_cell_length_b 15.3979997634888
_cell_length_c 6.84999990463257
_cell_angle_alpha 90     
_cell_angle_beta 90     
_cell_angle_gamma 90     
_cell_volume 1073.95967205131
loop_
_atom_site_label
_atom_site_type_symbol
_atom_site_Wyckoff_symbol
_atom_site_fract_x
_atom_site_fract_y
_atom_site_fract_z
_atom_site_occupancy
_atom_site_B_iso_or_equiv
s1 Ca2+ a 0.1898 0.25 0.0497 1 1
s2 Ca2+ a 0.1588 0.9029 0.1431 1 1
s3 Ca2+ a 0.066 0.0865 0.3623 1 1
s4 O2- a 0.603 0.25 0.232 1 1
s5 O2- a 0.4499 0.25 0.953 1 1
s6 O2- a 0.6495 0.1715 0.9389 1 1
s7 O2- a 0.2707 0.9911 0.3871 1 1
s8 O2- a 0.4754 0.0504 0.1798 1 1
s9 O2- a 0.2683 0.1539 0.287 1 1
s10 O2- a 0.4541 0.1099 0.534 1 1
s11 S a 0.5894 0.25 0.0172 1 1
s12 Si4+ a 0.3658 0.0744 0.3457 1 1
