data_global
_chemical_name_mineral 'Syngenite'
_symmetry_space_group_name_H-M p121/m1
_cell_length_a 9.77000045776367
_cell_length_b 7.15000009536743
_cell_length_c 6.25   
_cell_angle_alpha 90     
_cell_angle_beta 104    
_cell_angle_gamma 90     
_cell_volume 423.628107417025
loop_
_atom_site_label
_atom_site_type_symbol
_atom_site_Wyckoff_symbol
_atom_site_fract_x
_atom_site_fract_y
_atom_site_fract_z
_atom_site_occupancy
_atom_site_B_iso_or_equiv
s1 K1+ f 0.3357 0.0068 0.1947 1 1.35
s2 CA2+ e 0.9679 0.25 0.3327 1 0.47
s3 S e 0.9897 0.25 0.8396 1 0.38
s4 S e 0.6373 0.25 0.2697 1 0.66
s5 O2- e 0.1191 0.25 0.0167 1 1.26
s6 O2- e 0.2244 0.25 0.5015 1 1.05
s7 O2- e 0.5322 0.25 0.0586 1 1.12
s8 O2- e 0.565 0.25 0.4493 1 1.49
s9 O2- f 0.7296 0.0842 0.2837 1 1.47
s10 O2- e 0.8687 0.25 0.9421 1 1.2
s11 O2- f 0.9813 0.084 0.6959 1 0.89
s12 H f 0.243 0.354 0.597 1 0
