data_global
_chemical_name_mineral 'Thenardite'
_symmetry_space_group_name_H-M fddd
_cell_length_a 9.82999992370605
_cell_length_b 12.3009996414185
_cell_length_c 5.86800003051758
_cell_angle_alpha 90     
_cell_angle_beta 90     
_cell_angle_gamma 90     
_cell_volume 709.551671939222
loop_
_atom_site_label
_atom_site_type_symbol
_atom_site_Wyckoff_symbol
_atom_site_fract_x
_atom_site_fract_y
_atom_site_fract_z
_atom_site_occupancy
_atom_site_B_iso_or_equiv
s1 NA1+ e 0.8084 0.125 0.125 1 1.55
s2 S a 0.125 0.125 0.125 1 0.85
s3 O2- h 0.2138 0.0572 0.9793 1 1.44
