data_global
_chemical_name_mineral 'Tobermorite'
_symmetry_space_group_name_H-M imm2
_cell_length_a 5.58599996566772
_cell_length_b 3.69600009918213
_cell_length_c 22.7789993286133
_cell_angle_alpha 90     
_cell_angle_beta 90     
_cell_angle_gamma 90     
_cell_volume 470.291949692452
loop_
_atom_site_label
_atom_site_type_symbol
_atom_site_Wyckoff_symbol
_atom_site_fract_x
_atom_site_fract_y
_atom_site_fract_z
_atom_site_occupancy
_atom_site_B_iso_or_equiv
s1 CA2+ a 0 0 0 1 1.34
s2 CA2+ a 0 0 0.4135 1 1.34
s3 CA2+ c 0.256 0 0.698 0.13 4.74
s4 SI4+ c 0.678 0 0.141 0.25 2.76
s5 SI4+ c 0.656 0 0.282 0.25 2.76
s6 SI4+ d 0 0.086 0.873 0.5 1.18
s7 SI4+ d 0 0.075 0.557 0.5 1.18
s8 O2- e 0.265 0.49 0.019 0.5 1.34
s9 O2- e 0.265 0.48 0.411 0.5 1.34
s10 O2- c 0.68 0 0.211 0.25 6.32
s11 O2- c 0.93 0 0.113 0.25 6.32
s12 O2- b 0 0.5 0.577 0.5 1.89
s13 O2- b 0 0.5 0.848 0.5 1.89
s14 O2- d 0 0.17 0.811 0.5 4.18
s15 O2- d 0 0.16 0.619 0.5 4.18
s16 O2- c 0.924 0 0.307 0.25 6.32
s17 O2- c 0.65 0 0.213 0.25 6.32
s18 O2- a 0 0 0.112 0.5 3.16
s19 O2- a 0 0 0.303 0.5 3.16
