data_global
_chemical_name_mineral 'Tridymite low'
_symmetry_space_group_name_H-M c1c1
_cell_length_a 18.5230007171631
_cell_length_b 5.00299978256226
_cell_length_c 23.8110008239746
_cell_angle_alpha 90     
_cell_angle_beta 105.800003051758
_cell_angle_gamma 90     
_cell_volume 2123.20997088332
loop_
_atom_site_label
_atom_site_type_symbol
_atom_site_fract_x
_atom_site_fract_y
_atom_site_fract_z
_atom_site_occupancy
_atom_site_B_iso_or_equiv
s1 SI4+ 0.5507 0.541 0.5642 1 0.9
s2 SI4+ 0.7036 0.947 0.7374 1 1.2
s3 SI4+ 0.4198 0.549 0.6225 1 0.7
s4 SI4+ 0.5751 0.043 0.7955 1 1.1
s5 SI4+ 0.9247 0.548 0.6971 1 0.8
s6 SI4+ 0.7643 0.944 0.5386 1 0.9
s7 SI4+ 0.8023 0.449 0.7661 1 0.8
s8 SI4+ 0.6453 0.041 0.6027 1 0.7
s9 SI4+ 0.8531 0.463 0.9016 1 1
s10 SI4+ 0.9493 0.966 0.9358 1 1
s11 SI4+ 0.7244 0.559 0.9605 1 0.9
s12 SI4+ 0.5697 0.549 0.8702 1 1.1
s13 O2- 0.5749 0.351 0.8182 1 1.2
s14 O2- 0.5706 0.84 0.8476 1 1.5
s15 O2- 0.7315 0.138 0.4851 1 1.8
s16 O2- 0.7509 0.644 0.5152 1 1.7
s17 O2- 0.4155 0.352 0.6741 1 2.9
s18 O2- 0.4127 0.852 0.6434 1 1.9
s19 O2- 0.8773 0.164 0.9213 1 1.8
s20 O2- 0.916 0.668 0.9361 1 2.4
s21 O2- 0.7741 0.145 0.7538 1 1.8
s22 O2- 0.7336 0.645 0.7402 1 2.2
s23 O2- 0.6195 0.341 0.5847 1 1.2
s24 O2- 0.5811 0.843 0.5661 1 1.9
s25 O2- 0.4966 0.511 0.6062 1 2.7
s26 O2- 0.3533 0.489 0.5665 1 1
s27 O2- 0.6498 0.005 0.6711 1 1.8
s28 O2- 0.6524 0.996 0.7805 1 2
s29 O2- 0.8636 0.499 0.7328 1 1.8
s30 O2- 0.8361 0.503 0.8333 1 2.6
s31 O2- 0.5052 0.993 0.7398 1 1.8
s32 O2- 0.6369 0.511 0.9268 1 2.9
s33 O2- 0.9927 0.992 0.8868 1 1.4
s34 O2- 0.5 0.468 0.5 1 2.2
s35 O2- 0.7252 0.991 0.5898 1 2.3
s36 O2- 0.7744 0.521 0.9155 1 1.5
