data_Si_O2_-_01-071-0261
#Copyright 2025 International Centre for Diffraction Data. All rights reserved.

_audit_creation_date                  2025-05-02
_audit_creation_method                'Generated by PDF-4+ 2020 4.20.0.1'

_chemical_name_systematic             'Silicon Oxide'
_chemical_formula_moiety              'Si O2'
_chemical_formula_sum                 'O2 Si'
_chemical_formula_weight              60.08

_cell_length_a                        9.932(5)
_cell_length_b                        17.216(6)
_cell_length_c                        81.864(9)
_cell_angle_alpha                     90
_cell_angle_beta                      90
_cell_angle_gamma                     90
_cell_volume                          13997.87
_cell_formula_units_Z                 80.00
_symmetry_cell_setting                triclinic
_symmetry_space_group_name_H-M        F1
_symmetry_Int_Tables_number           1

loop_
_symmetry_equiv_pos_site_id
_symmetry_equiv_pos_as_xyz
1 x,y,z
2 x,y+1/2,z+1/2
3 x+1/2,y,z+1/2
4 x+1/2,y+1/2,z

loop_
_atom_site_label
_atom_site_type_symbol
_atom_site_fract_x
_atom_site_fract_y
_atom_site_fract_z
_atom_site_U_iso_or_equiv
_atom_site_symmetry_multiplicity
_atom_site_Wyckoff_symbol
_atom_site_occupancy
Si1 Si 0.06049 0.03633 0.03414 . 4 a 1.0
Si2 Si 0.56126 0.03679 0.03371 . 4 a 1.0
Si3 Si -0.02022 0.19793 0.01846 . 4 a 1.0
Si4 Si 0.23025 0.28978 0.02831 . 4 a 1.0
Si5 Si 0.48204 0.19712 0.01779 . 4 a 1.0
Si6 Si 0.72606 0.29128 0.02822 . 4 a 1.0
Si7 Si 0.31136 0.46063 0.01895 . 4 a 1.0
Si8 Si 0.81084 0.46158 0.01933 . 4 a 1.0
Si9 Si 0.013 0.05235 0.07211 . 4 a 1.0
Si10 Si 0.48576 0.03038 0.07135 . 4 a 1.0
Si11 Si -0.01645 0.22688 0.0796 . 4 a 1.0
Si12 Si 0.2307 0.31107 0.06598 . 4 a 1.0
Si13 Si 0.4608 0.20317 0.07936 . 4 a 1.0
Si14 Si 0.71072 0.28419 0.06598 . 4 a 1.0
Si15 Si 0.25859 0.46761 0.08318 . 4 a 1.0
Si16 Si 0.73949 0.44146 0.0834 . 4 a 1.0
Si17 Si 0.05429 0.04643 0.12921 . 4 a 1.0
Si18 Si 0.55652 0.04513 0.12951 . 4 a 1.0
Si19 Si -0.02557 0.21178 0.11701 . 4 a 1.0
Si20 Si 0.22884 0.2838 0.1327 . 4 a 1.0
Si21 Si 0.48158 0.21099 0.11717 . 4 a 1.0
Si22 Si 0.72795 0.28732 0.13375 . 4 a 1.0
Si23 Si 0.30672 0.45008 0.12047 . 4 a 1.0
Si24 Si 0.80469 0.45095 0.12077 . 4 a 1.0
Si25 Si -0.00806 0.05747 0.16665 . 4 a 1.0
Si26 Si 0.51258 0.03123 0.16666 . 4 a 1.0
Si27 Si -0.03431 0.2153 0.18369 . 4 a 1.0
Si28 Si 0.24039 0.27072 0.17021 . 4 a 1.0
Si29 Si 0.48592 0.18696 0.18403 . 4 a 1.0
Si30 Si 0.71198 0.29733 0.1714 . 4 a 1.0
Si31 Si 0.2663 0.44539 0.1777 . 4 a 1.0
Si32 Si 0.73858 0.47061 0.17894 . 4 a 1.0
Si33 Si 0.04792 0.0354 0.23125 . 4 a 1.0
Si34 Si 0.54997 0.03394 0.2318 . 4 a 1.0
Si35 Si -0.03233 0.20609 0.22157 . 4 a 1.0
Si36 Si 0.22078 0.30081 0.23164 . 4 a 1.0
Si37 Si 0.46402 0.2026 0.22158 . 4 a 1.0
Si38 Si 0.71696 0.29734 0.23155 . 4 a 1.0
Si39 Si 0.297 0.46113 0.21579 . 4 a 1.0
Si40 Si 0.79829 0.45915 0.21663 . 4 a 1.0
Si41 Si -0.005 0.03156 0.26833 . 4 a 1.0
Si42 Si 0.4936 0.02861 0.26878 . 4 a 1.0
Si43 Si -0.07624 0.20251 0.27784 . 4 a 1.0
Si44 Si 0.17311 0.29695 0.26892 . 4 a 1.0
Si45 Si 0.42106 0.20037 0.2781 . 4 a 1.0
Si46 Si 0.67164 0.2942 0.26879 . 4 a 1.0
Si47 Si 0.2431 0.457 0.28464 . 4 a 1.0
Si48 Si 0.74099 0.45386 0.28401 . 4 a 1.0
Si49 Si -0.01127 0.05741 0.33366 . 4 a 1.0
Si50 Si 0.51099 0.03461 0.33274 . 4 a 1.0
Si51 Si -0.03549 0.21523 0.31602 . 4 a 1.0
Si52 Si 0.23592 0.27164 0.33012 . 4 a 1.0
Si53 Si 0.48141 0.19216 0.31597 . 4 a 1.0
Si54 Si 0.71254 0.29525 0.3294 . 4 a 1.0
Si55 Si 0.26507 0.44681 0.32239 . 4 a 1.0
Si56 Si 0.73711 0.46883 0.32151 . 4 a 1.0
Si57 Si 0.05402 0.04624 0.37071 . 4 a 1.0
Si58 Si 0.55433 0.04489 0.37002 . 4 a 1.0
Si59 Si -0.02367 0.20997 0.38348 . 4 a 1.0
Si60 Si 0.22606 0.28414 0.36728 . 4 a 1.0
Si61 Si 0.47769 0.20929 0.3829 . 4 a 1.0
Si62 Si 0.72917 0.28317 0.36679 . 4 a 1.0
Si63 Si 0.30406 0.44985 0.37919 . 4 a 1.0
Si64 Si 0.80457 0.44962 0.37903 . 4 a 1.0
Si65 Si 0.01089 0.04822 0.42801 . 4 a 1.0
Si66 Si 0.49177 0.02779 0.42869 . 4 a 1.0
Si67 Si -0.01648 0.22402 0.42095 . 4 a 1.0
Si68 Si 0.23522 0.3033 0.43401 . 4 a 1.0
Si69 Si 0.46602 0.20096 0.4208 . 4 a 1.0
Si70 Si 0.71384 0.28565 0.43382 . 4 a 1.0
Si71 Si 0.26175 0.45878 0.41648 . 4 a 1.0
Si72 Si 0.74321 0.44246 0.41648 . 4 a 1.0
Si73 Si 8.9E-4 0.03822 0.4658 . 4 a 1.0
Si74 Si 0.50365 0.03917 0.46628 . 4 a 1.0
Si75 Si -0.06794 0.19996 0.48037 . 4 a 1.0
Si76 Si 0.18252 0.29559 0.47201 . 4 a 1.0
Si77 Si 0.432 0.2 0.48127 . 4 a 1.0
Si78 Si 0.6804 0.29548 0.47172 . 4 a 1.0
Si79 Si 0.25501 0.46482 0.48221 . 4 a 1.0
Si80 Si 0.75445 0.46519 0.48184 . 4 a 1.0
O81 O 0.02331 0.0288 0.05321 . 4 a 1.0
O82 O 0.53202 0.03557 0.05282 . 4 a 1.0
O83 O 0.18855 0.3045 0.04704 . 4 a 1.0
O84 O 0.68116 0.30149 0.04695 . 4 a 1.0
O85 O -0.06621 0.2291 0.09828 . 4 a 1.0
O86 O 0.4512 0.22872 0.09819 . 4 a 1.0
O87 O 0.28736 0.43393 0.10126 . 4 a 1.0
O88 O 0.78692 0.42769 0.10194 . 4 a 1.0
O89 O 0.03987 0.06824 0.14807 . 4 a 1.0
O90 O 0.53585 0.0651 0.14851 . 4 a 1.0
O91 O 0.19016 0.26991 0.15158 . 4 a 1.0
O92 O 0.69419 0.27038 0.15271 . 4 a 1.0
O93 O -0.06233 0.19435 0.2025 . 4 a 1.0
O94 O 0.43292 0.1879 0.20259 . 4 a 1.0
O95 O 0.27472 0.47082 0.19647 . 4 a 1.0
O96 O 0.79075 0.46998 0.19732 . 4 a 1.0
O97 O 0.03607 0.0089 0.24997 . 4 a 1.0
O98 O 0.54753 0.00924 0.25073 . 4 a 1.0
O99 O 0.20233 0.32513 0.2505 . 4 a 1.0
O100 O 0.69557 0.32268 0.25029 . 4 a 1.0
O101 O -0.06081 0.19694 0.29712 . 4 a 1.0
O102 O 0.4325 0.19703 0.29745 . 4 a 1.0
O103 O 0.28913 0.46581 0.30342 . 4 a 1.0
O104 O 0.78507 0.46136 0.30288 . 4 a 1.0
O105 O 0.03549 0.07231 0.35209 . 4 a 1.0
O106 O 0.54098 0.06541 0.35093 . 4 a 1.0
O107 O 0.18331 0.26704 0.34864 . 4 a 1.0
O108 O 0.69788 0.26518 0.34786 . 4 a 1.0
O109 O -0.0656 0.22485 0.40227 . 4 a 1.0
O110 O 0.44709 0.22556 0.402 . 4 a 1.0
O111 O 0.28665 0.42878 0.39814 . 4 a 1.0
O112 O 0.79172 0.43183 0.39803 . 4 a 1.0
O113 O 0.02675 0.02229 0.44667 . 4 a 1.0
O114 O 0.53965 0.02918 0.44729 . 4 a 1.0
O115 O 0.19695 0.30664 0.45287 . 4 a 1.0
O116 O 0.683 0.3092 0.45242 . 4 a 1.0
O117 O -0.05068 0.17436 0.49912 . 4 a 1.0
O118 O 0.45126 0.1723 0.4999 . 4 a 1.0
O119 O 0.28663 0.48885 0.50083 . 4 a 1.0
O120 O 0.78581 0.48869 0.50049 . 4 a 1.0
O121 O -0.03453 -0.02233 0.02397 . 4 a 1.0
O122 O 0.21504 0.01065 0.03152 . 4 a 1.0
O123 O 0.46516 -0.02383 0.0244 . 4 a 1.0
O124 O 0.71548 0.00966 0.03108 . 4 a 1.0
O125 O 0.03828 0.12458 0.02849 . 4 a 1.0
O126 O 0.5435 0.12344 0.02711 . 4 a 1.0
O127 O -0.15552 0.22774 0.02709 . 4 a 1.0
O128 O 0.09752 0.26258 0.01843 . 4 a 1.0
O129 O 0.3472 0.22544 0.02695 . 4 a 1.0
O130 O 0.59632 0.26374 0.01782 . 4 a 1.0
O131 O 0.28313 0.36924 0.02027 . 4 a 1.0
O132 O 0.77913 0.37097 0.02058 . 4 a 1.0
O133 O -0.13521 0.03536 0.0791 . 4 a 1.0
O134 O 0.12074 0.00451 0.08279 . 4 a 1.0
O135 O 0.36614 -0.03305 0.07245 . 4 a 1.0
O136 O 0.60971 0.00404 0.08268 . 4 a 1.0
O137 O 0.04317 0.14369 0.07451 . 4 a 1.0
O138 O 0.42613 0.11183 0.07778 . 4 a 1.0
O139 O -0.13907 0.25131 0.06786 . 4 a 1.0
O140 O 0.10255 0.29035 0.07728 . 4 a 1.0
O141 O 0.353 0.25204 0.06899 . 4 a 1.0
O142 O 0.60949 0.21645 0.07209 . 4 a 1.0
O143 O 0.27766 0.39862 0.07004 . 4 a 1.0
O144 O 0.6808 0.36035 0.07652 . 4 a 1.0
O145 O -0.03956 -0.02582 0.12417 . 4 a 1.0
O146 O 0.208 0.02253 0.12546 . 4 a 1.0
O147 O 0.45867 -0.02388 0.12378 . 4 a 1.0
O148 O 0.71016 0.01902 0.12657 . 4 a 1.0
O149 O 0.01672 0.12187 0.11855 . 4 a 1.0
O150 O 0.53102 0.12274 0.11909 . 4 a 1.0
O151 O -0.15153 0.2302 0.12863 . 4 a 1.0
O152 O 0.09963 0.26688 0.12146 . 4 a 1.0
O153 O 0.34668 0.22426 0.12767 . 4 a 1.0
O154 O 0.5967 0.27066 0.12288 . 4 a 1.0
O155 O 0.27857 0.37158 0.13039 . 4 a 1.0
O156 O 0.77435 0.37635 0.13196 . 4 a 1.0
O157 O -0.12477 -0.00657 0.16729 . 4 a 1.0
O158 O 0.11944 0.03418 0.17769 . 4 a 1.0
O159 O 0.36308 -0.00436 0.16748 . 4 a 1.0
O160 O 0.6193 -0.03701 0.17025 . 4 a 1.0
O161 O -0.06677 0.13958 0.17288 . 4 a 1.0
O162 O 0.53602 0.10036 0.1796 . 4 a 1.0
O163 O -0.13692 0.28276 0.17792 . 4 a 1.0
O164 O 0.11713 0.24625 0.18189 . 4 a 1.0
O165 O 0.36134 0.20851 0.1722 . 4 a 1.0
O166 O 0.6079 0.24769 0.18233 . 4 a 1.0
O167 O 0.29727 0.35425 0.17561 . 4 a 1.0
O168 O 0.67902 0.38824 0.17331 . 4 a 1.0
O169 O -0.04879 -0.01691 0.21988 . 4 a 1.0
O170 O 0.20109 0.02038 0.2256 . 4 a 1.0
O171 O 0.45224 -0.02256 0.22162 . 4 a 1.0
O172 O 0.70138 0.02185 0.2252 . 4 a 1.0
O173 O 0.0161 0.12601 0.22966 . 4 a 1.0
O174 O 0.50938 0.1233 0.23024 . 4 a 1.0
O175 O -0.16976 0.23072 0.23071 . 4 a 1.0
O176 O 0.07875 0.27201 0.22448 . 4 a 1.0
O177 O 0.32898 0.23136 0.23066 . 4 a 1.0
O178 O 0.57759 0.26756 0.22387 . 4 a 1.0
O179 O 0.26947 0.37294 0.2208 . 4 a 1.0
O180 O 0.76357 0.37077 0.2209 . 4 a 1.0
O181 O -0.13495 -0.01919 0.27293 . 4 a 1.0
O182 O 0.11728 0.01166 0.2805 . 4 a 1.0
O183 O 0.36767 -0.02723 0.27257 . 4 a 1.0
O184 O 0.61405 0.01162 0.28149 . 4 a 1.0
O185 O -0.04016 0.12214 0.26904 . 4 a 1.0
O186 O 0.44879 0.1177 0.26981 . 4 a 1.0
O187 O -0.23071 0.22311 0.27351 . 4 a 1.0
O188 O 0.01841 0.26978 0.2703 . 4 a 1.0
O189 O 0.26732 0.22413 0.27369 . 4 a 1.0
O190 O 0.51778 0.26532 0.27027 . 4 a 1.0
O191 O 0.20067 0.36812 0.28124 . 4 a 1.0
O192 O 0.69288 0.36573 0.28107 . 4 a 1.0
O193 O -0.1317 -0.00455 0.33348 . 4 a 1.0
O194 O 0.11483 0.03043 0.32267 . 4 a 1.0
O195 O 0.36017 7.4E-4 0.33242 . 4 a 1.0
O196 O 0.61297 -0.03472 0.32792 . 4 a 1.0
O197 O -0.06702 0.13839 0.32644 . 4 a 1.0
O198 O 0.53016 0.10446 0.31991 . 4 a 1.0
O199 O -0.13852 0.28144 0.32215 . 4 a 1.0
O200 O 0.11564 0.24608 0.31821 . 4 a 1.0
O201 O 0.35817 0.21043 0.3281 . 4 a 1.0
O202 O 0.60566 0.25037 0.31821 . 4 a 1.0
O203 O 0.29305 0.35586 0.32543 . 4 a 1.0
O204 O 0.68387 0.38747 0.32871 . 4 a 1.0
O205 O -0.0427 -0.02487 0.37553 . 4 a 1.0
O206 O 0.20763 0.01843 0.37297 . 4 a 1.0
O207 O 0.45804 -0.02593 0.37506 . 4 a 1.0
O208 O 0.70792 0.01982 0.37353 . 4 a 1.0
O209 O 0.0251 0.1208 0.38207 . 4 a 1.0
O210 O 0.52151 0.12008 0.38091 . 4 a 1.0
O211 O -0.15424 0.22357 0.37223 . 4 a 1.0
O212 O 0.0963 0.26815 0.37864 . 4 a 1.0
O213 O 0.34475 0.22541 0.37221 . 4 a 1.0
O214 O 0.59553 0.26715 0.3773 . 4 a 1.0
O215 O 0.27131 0.37337 0.3686 . 4 a 1.0
O216 O 0.77472 0.37183 0.36876 . 4 a 1.0
O217 O -0.13518 0.02894 0.42062 . 4 a 1.0
O218 O 0.12484 0.00585 0.41725 . 4 a 1.0
O219 O 0.37026 -0.03506 0.42775 . 4 a 1.0
O220 O 0.6125 -0.00547 0.41758 . 4 a 1.0
O221 O 0.03729 0.14034 0.42652 . 4 a 1.0
O222 O 0.43439 0.1091 0.42224 . 4 a 1.0
O223 O -0.1345 0.25449 0.43264 . 4 a 1.0
O224 O 0.10837 0.28407 0.42256 . 4 a 1.0
O225 O 0.35841 0.24435 0.43203 . 4 a 1.0
O226 O 0.6145 0.21651 0.42794 . 4 a 1.0
O227 O 0.28704 0.38952 0.42918 . 4 a 1.0
O228 O 0.68536 0.3596 0.42246 . 4 a 1.0
O229 O -0.11012 -0.02326 0.47172 . 4 a 1.0
O230 O 0.13973 0.02249 0.47529 . 4 a 1.0
O231 O 0.38978 -0.02228 0.47128 . 4 a 1.0
O232 O 0.64061 0.02355 0.47609 . 4 a 1.0
O233 O -0.04298 0.12673 0.46855 . 4 a 1.0
O234 O 0.45817 0.12756 0.46933 . 4 a 1.0
O235 O -0.22182 0.22704 0.47767 . 4 a 1.0
O236 O 0.02843 0.27144 0.47573 . 4 a 1.0
O237 O 0.27839 0.22882 0.47931 . 4 a 1.0
O238 O 0.52864 0.27213 0.47694 . 4 a 1.0
O239 O 0.20922 0.37595 0.48142 . 4 a 1.0
O240 O 0.71419 0.37524 0.48105 . 4 a 1.0

