data_Fe4_(_S_O4_)_O2_(_O_H_)6_(_H2_O_)2_-_04-017-9740
#Copyright 2025 International Centre for Diffraction Data. All rights reserved.

_audit_creation_date                  2025-05-13
_audit_creation_method                'Generated by PDF-4+ 2020 4.20.0.1'

_chemical_name_systematic             'Iron Oxide Sulfate Hydroxide Hydrate'
_chemical_formula_moiety              'Fe4 ( S O4 ) O2 ( O H )6 ( H2 O )2'
_chemical_formula_sum                 'Fe4 H10 O14 S'
_chemical_formula_weight              489.51

_cell_length_a                        16.068(4)
_cell_length_b                        3.058(1)
_cell_length_c                        10.929(2)
_cell_angle_alpha                     90.00(3)
_cell_angle_beta                      93.82(3)
_cell_angle_gamma                     90.00(3)
_cell_volume                          535.81
_cell_formula_units_Z                 2.00
_symmetry_cell_setting                monoclinic
_symmetry_space_group_name_H-M        C2/m
_symmetry_Int_Tables_number           12

loop_
_symmetry_equiv_pos_site_id
_symmetry_equiv_pos_as_xyz
1 x,y,z
2 -x,-y,-z
3 x,-y,z
4 -x,y,-z
5 x+1/2,y+1/2,z
6 -x+1/2,-y+1/2,-z
7 x+1/2,-y+1/2,z
8 -x+1/2,y+1/2,-z

loop_
_atom_site_label
_atom_site_type_symbol
_atom_site_fract_x
_atom_site_fract_y
_atom_site_fract_z
_atom_site_U_iso_or_equiv
_atom_site_symmetry_multiplicity
_atom_site_Wyckoff_symbol
_atom_site_occupancy
Fe1 Fe 0.2971 0.0 0.3927 0.014 4 i 1.0
Fe2 Fe 0.22636 0.5 0.1251 0.0137 4 i 1.0
S3 S 0.4905 0.0 0.2983 0.022 4 i 0.5
O4 O 0.2744 0.5 0.2888 0.019 4 i 1.0
O5 O 0.5405 0.605 0.3245 0.031 8 j 0.5
O6 O 0.1511 0.0 0.1423 0.02 4 i 1.0
O7 O 0.186 0.0 0.4732 0.017 4 i 1.0
O8 O 0.4227 0.0 0.3872 0.034 4 i 0.5
O9 O 0.4227 0.0 0.3872 0.034 4 i 0.5
O10 O 0.3014 0.0 0.067 0.021 4 i 1.0
O11 O 0.4599 0.0 0.17 0.03 4 i 0.5
O12 O 0.47 0.0 0.081 0.063 4 i 0.5

